
OS:Version,
  {a597edc2-7982-44f2-b717-397d12f67db9}, !- Handle
  2.7.0;                                  !- Version Identifier

OS:SpaceType,
  {90c98962-7ad4-43ec-a381-4b831af20f36}, !- Handle
  Asm Auditorium,                         !- Name
  ,                                       !- Default Construction Set Name
  ,                                       !- Default Schedule Set Name
  ,                                       !- Group Rendering Name
  ,                                       !- Design Specification Outdoor Air Object Name
  ,                                       !- Standards Template
  Asm,                                    !- Standards Building Type
  Auditorium;                             !- Standards Space Type

OS:SpaceType,
  {6b440f06-c46b-43e1-b6ee-7d7c0097dfbc}, !- Handle
  Asm OfficeGeneral,                      !- Name
  ,                                       !- Default Construction Set Name
  ,                                       !- Default Schedule Set Name
  ,                                       !- Group Rendering Name
  ,                                       !- Design Specification Outdoor Air Object Name
  ,                                       !- Standards Template
  Asm,                                    !- Standards Building Type
  OfficeGeneral;                          !- Standards Space Type

OS:Building,
  {9f11edbc-80c7-403d-9e97-85741e271eee}, !- Handle
  DEER Pre-1975|Asm,                      !- Name
  ,                                       !- Building Sector Type
  ,                                       !- North Axis {deg}
  ,                                       !- Nominal Floor to Floor Height {m}
  ,                                       !- Space Type Name
  ,                                       !- Default Construction Set Name
  ;                                       !- Default Schedule Set Name

OS:Site,
  {c44c3856-7929-4b64-8968-f8af90c0f87f}, !- Handle
  Site 1,                                 !- Name
  ,                                       !- Latitude {deg}
  ,                                       !- Longitude {deg}
  ,                                       !- Time Zone {hr}
  ,                                       !- Elevation {m}
  ;                                       !- Terrain

OS:BuildingStory,
  {72e67f4d-34a6-4c28-af8a-f8badebfdc7f}, !- Handle
  Story Ground,                           !- Name
  0,                                      !- Nominal Z Coordinate {m}
  4.572,                                  !- Nominal Floor to Floor Height {m}
  ,                                       !- Default Construction Set Name
  ,                                       !- Default Schedule Set Name
  ;                                       !- Group Rendering Name

OS:Space,
  {10c050cc-4d98-4ae2-9fad-e51cffdfe712}, !- Handle
  Asm Auditorium A end_a - Story Ground,  !- Name
  {90c98962-7ad4-43ec-a381-4b831af20f36}, !- Space Type Name
  ,                                       !- Default Construction Set Name
  ,                                       !- Default Schedule Set Name
  -0,                                     !- Direction of Relative North {deg}
  -28.1024112360488,                      !- X Origin {m}
  -28.1024112360488,                      !- Y Origin {m}
  0,                                      !- Z Origin {m}
  {72e67f4d-34a6-4c28-af8a-f8badebfdc7f}, !- Building Story Name
  {071d24d5-0563-40a6-9b1d-147e2d3b9d9c}; !- Thermal Zone Name

OS:Surface,
  {456f4691-cb93-439a-a98c-db8204bebdc6}, !- Handle
  Surface 1,                              !- Name
  Floor,                                  !- Surface Type
  ,                                       !- Construction Name
  {10c050cc-4d98-4ae2-9fad-e51cffdfe712}, !- Space Name
  Ground,                                 !- Outside Boundary Condition
  ,                                       !- Outside Boundary Condition Object
  NoSun,                                  !- Sun Exposure
  NoWind,                                 !- Wind Exposure
  ,                                       !- View Factor to Ground
  ,                                       !- Number of Vertices
  -3.19744231092045e-014, -2.8421709430404e-014, 0, !- X,Y,Z Vertex 1 {m}
  -3.19744231092045e-014, 4.57199999999997, 0, !- X,Y,Z Vertex 2 {m}
  4.57199999999997, 4.57199999999997, 0,  !- X,Y,Z Vertex 3 {m}
  4.57199999999997, -2.8421709430404e-014, 0; !- X,Y,Z Vertex 4 {m}

OS:Surface,
  {59b4d3ef-90ff-468d-a00d-42dcde1dca6c}, !- Handle
  Surface 2,                              !- Name
  Wall,                                   !- Surface Type
  ,                                       !- Construction Name
  {10c050cc-4d98-4ae2-9fad-e51cffdfe712}, !- Space Name
  Outdoors,                               !- Outside Boundary Condition
  ,                                       !- Outside Boundary Condition Object
  SunExposed,                             !- Sun Exposure
  WindExposed,                            !- Wind Exposure
  ,                                       !- View Factor to Ground
  ,                                       !- Number of Vertices
  -3.19744231092045e-014, 4.57199999999997, 4.572, !- X,Y,Z Vertex 1 {m}
  -3.19744231092045e-014, 4.57199999999997, 0, !- X,Y,Z Vertex 2 {m}
  -3.19744231092045e-014, -2.8421709430404e-014, 0, !- X,Y,Z Vertex 3 {m}
  -3.19744231092045e-014, -2.8421709430404e-014, 4.572; !- X,Y,Z Vertex 4 {m}

OS:Surface,
  {8da11ac3-8213-498b-a5b8-774eb21af46b}, !- Handle
  Surface 3,                              !- Name
  Wall,                                   !- Surface Type
  ,                                       !- Construction Name
  {10c050cc-4d98-4ae2-9fad-e51cffdfe712}, !- Space Name
  Surface,                                !- Outside Boundary Condition
  {10033ae4-fe92-46b8-a173-3063d21c5a6f}, !- Outside Boundary Condition Object
  NoSun,                                  !- Sun Exposure
  NoWind,                                 !- Wind Exposure
  ,                                       !- View Factor to Ground
  ,                                       !- Number of Vertices
  4.57199999999997, 4.57199999999997, 4.572, !- X,Y,Z Vertex 1 {m}
  4.57199999999997, 4.57199999999997, 0,  !- X,Y,Z Vertex 2 {m}
  -3.19744231092045e-014, 4.57199999999997, 0, !- X,Y,Z Vertex 3 {m}
  -3.19744231092045e-014, 4.57199999999997, 4.572; !- X,Y,Z Vertex 4 {m}

OS:Surface,
  {f309bf0d-912c-4ee7-82b7-2880cb2dca02}, !- Handle
  Surface 4,                              !- Name
  Wall,                                   !- Surface Type
  ,                                       !- Construction Name
  {10c050cc-4d98-4ae2-9fad-e51cffdfe712}, !- Space Name
  Surface,                                !- Outside Boundary Condition
  {129490f8-b7c6-4475-82de-0684a5f72a29}, !- Outside Boundary Condition Object
  NoSun,                                  !- Sun Exposure
  NoWind,                                 !- Wind Exposure
  ,                                       !- View Factor to Ground
  ,                                       !- Number of Vertices
  4.57199999999997, -2.8421709430404e-014, 4.572, !- X,Y,Z Vertex 1 {m}
  4.57199999999997, -2.8421709430404e-014, 0, !- X,Y,Z Vertex 2 {m}
  4.57199999999997, 4.57199999999997, 0,  !- X,Y,Z Vertex 3 {m}
  4.57199999999997, 4.57199999999997, 4.572; !- X,Y,Z Vertex 4 {m}

OS:Surface,
  {fcaf1a8c-f812-439e-8e64-c80cb86a0706}, !- Handle
  Surface 5,                              !- Name
  Wall,                                   !- Surface Type
  ,                                       !- Construction Name
  {10c050cc-4d98-4ae2-9fad-e51cffdfe712}, !- Space Name
  Outdoors,                               !- Outside Boundary Condition
  ,                                       !- Outside Boundary Condition Object
  SunExposed,                             !- Sun Exposure
  WindExposed,                            !- Wind Exposure
  ,                                       !- View Factor to Ground
  ,                                       !- Number of Vertices
  -3.19744231092045e-014, -2.8421709430404e-014, 4.572, !- X,Y,Z Vertex 1 {m}
  -3.19744231092045e-014, -2.8421709430404e-014, 0, !- X,Y,Z Vertex 2 {m}
  4.57199999999997, -2.8421709430404e-014, 0, !- X,Y,Z Vertex 3 {m}
  4.57199999999997, -2.8421709430404e-014, 4.572; !- X,Y,Z Vertex 4 {m}

OS:Surface,
  {2a96c095-77c8-4d72-99bc-da39ac8f46f5}, !- Handle
  Surface 6,                              !- Name
  RoofCeiling,                            !- Surface Type
  ,                                       !- Construction Name
  {10c050cc-4d98-4ae2-9fad-e51cffdfe712}, !- Space Name
  Outdoors,                               !- Outside Boundary Condition
  ,                                       !- Outside Boundary Condition Object
  SunExposed,                             !- Sun Exposure
  WindExposed,                            !- Wind Exposure
  ,                                       !- View Factor to Ground
  ,                                       !- Number of Vertices
  4.57199999999997, -2.8421709430404e-014, 4.572, !- X,Y,Z Vertex 1 {m}
  4.57199999999997, 4.57199999999997, 4.572, !- X,Y,Z Vertex 2 {m}
  -3.19744231092045e-014, 4.57199999999997, 4.572, !- X,Y,Z Vertex 3 {m}
  -3.19744231092045e-014, -2.8421709430404e-014, 4.572; !- X,Y,Z Vertex 4 {m}

OS:ThermalZone,
  {071d24d5-0563-40a6-9b1d-147e2d3b9d9c}, !- Handle
  Zone Asm Auditorium A end_a - Story Ground, !- Name
  1,                                      !- Multiplier
  ,                                       !- Ceiling Height {m}
  ,                                       !- Volume {m3}
  ,                                       !- Floor Area {m2}
  ,                                       !- Zone Inside Convection Algorithm
  ,                                       !- Zone Outside Convection Algorithm
  ,                                       !- Zone Conditioning Equipment List Name
  {e05afdb0-3dd6-4232-ab5f-9c5f263cfd3f}, !- Zone Air Inlet Port List
  {bef37a79-b165-4b71-acb8-91b98b9641d6}, !- Zone Air Exhaust Port List
  {19d2c96d-b0f3-49c0-83c7-2cc83a1734ac}, !- Zone Air Node Name
  {4c878c72-5a53-48ff-abfb-5a57d28c5751}, !- Zone Return Air Port List
  ,                                       !- Primary Daylighting Control Name
  ,                                       !- Fraction of Zone Controlled by Primary Daylighting Control
  ,                                       !- Secondary Daylighting Control Name
  ,                                       !- Fraction of Zone Controlled by Secondary Daylighting Control
  ,                                       !- Illuminance Map Name
  ,                                       !- Group Rendering Name
  ,                                       !- Thermostat Name
  No;                                     !- Use Ideal Air Loads

OS:Node,
  {0e73fe21-d9c5-41d0-9977-60d4a7176c4c}, !- Handle
  Node 1,                                 !- Name
  {19d2c96d-b0f3-49c0-83c7-2cc83a1734ac}, !- Inlet Port
  ;                                       !- Outlet Port

OS:Connection,
  {19d2c96d-b0f3-49c0-83c7-2cc83a1734ac}, !- Handle
  {e21ce748-a68b-47ae-8749-29ad94900366}, !- Name
  {071d24d5-0563-40a6-9b1d-147e2d3b9d9c}, !- Source Object
  11,                                     !- Outlet Port
  {0e73fe21-d9c5-41d0-9977-60d4a7176c4c}, !- Target Object
  2;                                      !- Inlet Port

OS:PortList,
  {e05afdb0-3dd6-4232-ab5f-9c5f263cfd3f}, !- Handle
  {ada6a2ae-d10b-4390-ac4a-0c28aebe9a84}, !- Name
  {071d24d5-0563-40a6-9b1d-147e2d3b9d9c}; !- HVAC Component

OS:PortList,
  {bef37a79-b165-4b71-acb8-91b98b9641d6}, !- Handle
  {e9b65765-9b43-4d81-b7b5-d7138943d574}, !- Name
  {071d24d5-0563-40a6-9b1d-147e2d3b9d9c}; !- HVAC Component

OS:PortList,
  {4c878c72-5a53-48ff-abfb-5a57d28c5751}, !- Handle
  {bd5821f3-07d8-4453-a214-ce76f4a13dff}, !- Name
  {071d24d5-0563-40a6-9b1d-147e2d3b9d9c}; !- HVAC Component

OS:Sizing:Zone,
  {82a1cdff-98cd-4305-8066-51824eae1721}, !- Handle
  {071d24d5-0563-40a6-9b1d-147e2d3b9d9c}, !- Zone or ZoneList Name
  SupplyAirTemperature,                   !- Zone Cooling Design Supply Air Temperature Input Method
  14,                                     !- Zone Cooling Design Supply Air Temperature {C}
  11.11,                                  !- Zone Cooling Design Supply Air Temperature Difference {deltaC}
  SupplyAirTemperature,                   !- Zone Heating Design Supply Air Temperature Input Method
  40,                                     !- Zone Heating Design Supply Air Temperature {C}
  11.11,                                  !- Zone Heating Design Supply Air Temperature Difference {deltaC}
  0.0085,                                 !- Zone Cooling Design Supply Air Humidity Ratio {kg-H2O/kg-air}
  0.008,                                  !- Zone Heating Design Supply Air Humidity Ratio {kg-H2O/kg-air}
  ,                                       !- Zone Heating Sizing Factor
  ,                                       !- Zone Cooling Sizing Factor
  DesignDay,                              !- Cooling Design Air Flow Method
  ,                                       !- Cooling Design Air Flow Rate {m3/s}
  ,                                       !- Cooling Minimum Air Flow per Zone Floor Area {m3/s-m2}
  ,                                       !- Cooling Minimum Air Flow {m3/s}
  ,                                       !- Cooling Minimum Air Flow Fraction
  DesignDay,                              !- Heating Design Air Flow Method
  ,                                       !- Heating Design Air Flow Rate {m3/s}
  ,                                       !- Heating Maximum Air Flow per Zone Floor Area {m3/s-m2}
  ,                                       !- Heating Maximum Air Flow {m3/s}
  ,                                       !- Heating Maximum Air Flow Fraction
  ,                                       !- Design Zone Air Distribution Effectiveness in Cooling Mode
  ,                                       !- Design Zone Air Distribution Effectiveness in Heating Mode
  No,                                     !- Account for Dedicated Outdoor Air System
  NeutralSupplyAir,                       !- Dedicated Outdoor Air System Control Strategy
  autosize,                               !- Dedicated Outdoor Air Low Setpoint Temperature for Design {C}
  autosize;                               !- Dedicated Outdoor Air High Setpoint Temperature for Design {C}

OS:ZoneHVAC:EquipmentList,
  {c145a635-b2a3-4030-a593-076794c635b4}, !- Handle
  Zone HVAC Equipment List 1,             !- Name
  {071d24d5-0563-40a6-9b1d-147e2d3b9d9c}; !- Thermal Zone

OS:Space,
  {66d3fe17-29d2-4f45-8680-f1d738c38244}, !- Handle
  Asm Auditorium B end_a - Story Ground,  !- Name
  {90c98962-7ad4-43ec-a381-4b831af20f36}, !- Space Type Name
  ,                                       !- Default Construction Set Name
  ,                                       !- Default Schedule Set Name
  -0,                                     !- Direction of Relative North {deg}
  -28.1024112360488,                      !- X Origin {m}
  -23.5304112360488,                      !- Y Origin {m}
  0,                                      !- Z Origin {m}
  {72e67f4d-34a6-4c28-af8a-f8badebfdc7f}, !- Building Story Name
  {e77572a3-aa39-41ab-abe4-b230085c4e50}; !- Thermal Zone Name

OS:Surface,
  {f486f942-4311-42aa-ab40-d5d5b9b94d73}, !- Handle
  Surface 7,                              !- Name
  Floor,                                  !- Surface Type
  ,                                       !- Construction Name
  {66d3fe17-29d2-4f45-8680-f1d738c38244}, !- Space Name
  Ground,                                 !- Outside Boundary Condition
  ,                                       !- Outside Boundary Condition Object
  NoSun,                                  !- Sun Exposure
  NoWind,                                 !- Wind Exposure
  ,                                       !- View Factor to Ground
  ,                                       !- Number of Vertices
  -3.19744231092045e-014, -2.8421709430404e-014, 0, !- X,Y,Z Vertex 1 {m}
  -3.19744231092045e-014, 47.0608224720976, 0, !- X,Y,Z Vertex 2 {m}
  4.57199999999997, 47.0608224720976, 0,  !- X,Y,Z Vertex 3 {m}
  4.57199999999997, -2.8421709430404e-014, 0; !- X,Y,Z Vertex 4 {m}

OS:Surface,
  {bc1bf98f-7dca-48e2-a4fd-602d3fe017bb}, !- Handle
  Surface 8,                              !- Name
  Wall,                                   !- Surface Type
  ,                                       !- Construction Name
  {66d3fe17-29d2-4f45-8680-f1d738c38244}, !- Space Name
  Outdoors,                               !- Outside Boundary Condition
  ,                                       !- Outside Boundary Condition Object
  SunExposed,                             !- Sun Exposure
  WindExposed,                            !- Wind Exposure
  ,                                       !- View Factor to Ground
  ,                                       !- Number of Vertices
  -3.19744231092045e-014, 47.0608224720976, 4.572, !- X,Y,Z Vertex 1 {m}
  -3.19744231092045e-014, 47.0608224720976, 0, !- X,Y,Z Vertex 2 {m}
  -3.19744231092045e-014, -2.8421709430404e-014, 0, !- X,Y,Z Vertex 3 {m}
  -3.19744231092045e-014, -2.8421709430404e-014, 4.572; !- X,Y,Z Vertex 4 {m}

OS:Surface,
  {b274a865-4288-4a85-8b9b-146fad08be83}, !- Handle
  Surface 9,                              !- Name
  Wall,                                   !- Surface Type
  ,                                       !- Construction Name
  {66d3fe17-29d2-4f45-8680-f1d738c38244}, !- Space Name
  Surface,                                !- Outside Boundary Condition
  {d347972d-0100-4321-a7ab-02c1e755883e}, !- Outside Boundary Condition Object
  NoSun,                                  !- Sun Exposure
  NoWind,                                 !- Wind Exposure
  ,                                       !- View Factor to Ground
  ,                                       !- Number of Vertices
  4.57199999999997, 47.0608224720976, 4.572, !- X,Y,Z Vertex 1 {m}
  4.57199999999997, 47.0608224720976, 0,  !- X,Y,Z Vertex 2 {m}
  -3.19744231092045e-014, 47.0608224720976, 0, !- X,Y,Z Vertex 3 {m}
  -3.19744231092045e-014, 47.0608224720976, 4.572; !- X,Y,Z Vertex 4 {m}

OS:Surface,
  {457078e9-9d22-4834-a1c1-daed02aa03f6}, !- Handle
  Surface 10,                             !- Name
  Wall,                                   !- Surface Type
  ,                                       !- Construction Name
  {66d3fe17-29d2-4f45-8680-f1d738c38244}, !- Space Name
  Surface,                                !- Outside Boundary Condition
  {4bb9c50b-7e82-498f-bee5-bc1409ba616f}, !- Outside Boundary Condition Object
  NoSun,                                  !- Sun Exposure
  NoWind,                                 !- Wind Exposure
  ,                                       !- View Factor to Ground
  ,                                       !- Number of Vertices
  4.57199999999997, -2.8421709430404e-014, 4.572, !- X,Y,Z Vertex 1 {m}
  4.57199999999997, -2.8421709430404e-014, 0, !- X,Y,Z Vertex 2 {m}
  4.57199999999997, 47.0608224720976, 0,  !- X,Y,Z Vertex 3 {m}
  4.57199999999997, 47.0608224720976, 4.572; !- X,Y,Z Vertex 4 {m}

OS:Surface,
  {10033ae4-fe92-46b8-a173-3063d21c5a6f}, !- Handle
  Surface 11,                             !- Name
  Wall,                                   !- Surface Type
  ,                                       !- Construction Name
  {66d3fe17-29d2-4f45-8680-f1d738c38244}, !- Space Name
  Surface,                                !- Outside Boundary Condition
  {8da11ac3-8213-498b-a5b8-774eb21af46b}, !- Outside Boundary Condition Object
  NoSun,                                  !- Sun Exposure
  NoWind,                                 !- Wind Exposure
  ,                                       !- View Factor to Ground
  ,                                       !- Number of Vertices
  -3.19744231092045e-014, -2.8421709430404e-014, 4.572, !- X,Y,Z Vertex 1 {m}
  -3.19744231092045e-014, -2.8421709430404e-014, 0, !- X,Y,Z Vertex 2 {m}
  4.57199999999997, -2.8421709430404e-014, 0, !- X,Y,Z Vertex 3 {m}
  4.57199999999997, -2.8421709430404e-014, 4.572; !- X,Y,Z Vertex 4 {m}

OS:Surface,
  {e3bf4e7b-568e-4072-94e1-0b8ffe19b76f}, !- Handle
  Surface 12,                             !- Name
  RoofCeiling,                            !- Surface Type
  ,                                       !- Construction Name
  {66d3fe17-29d2-4f45-8680-f1d738c38244}, !- Space Name
  Outdoors,                               !- Outside Boundary Condition
  ,                                       !- Outside Boundary Condition Object
  SunExposed,                             !- Sun Exposure
  WindExposed,                            !- Wind Exposure
  ,                                       !- View Factor to Ground
  ,                                       !- Number of Vertices
  4.57199999999997, -2.8421709430404e-014, 4.572, !- X,Y,Z Vertex 1 {m}
  4.57199999999997, 47.0608224720976, 4.572, !- X,Y,Z Vertex 2 {m}
  -3.19744231092045e-014, 47.0608224720976, 4.572, !- X,Y,Z Vertex 3 {m}
  -3.19744231092045e-014, -2.8421709430404e-014, 4.572; !- X,Y,Z Vertex 4 {m}

OS:ThermalZone,
  {e77572a3-aa39-41ab-abe4-b230085c4e50}, !- Handle
  Zone Asm Auditorium B end_a - Story Ground, !- Name
  1,                                      !- Multiplier
  ,                                       !- Ceiling Height {m}
  ,                                       !- Volume {m3}
  ,                                       !- Floor Area {m2}
  ,                                       !- Zone Inside Convection Algorithm
  ,                                       !- Zone Outside Convection Algorithm
  ,                                       !- Zone Conditioning Equipment List Name
  {ba28f0d0-1c7d-4c96-82be-3e134b81d7ef}, !- Zone Air Inlet Port List
  {8e55d85b-8483-49fe-9306-5f776572fd3a}, !- Zone Air Exhaust Port List
  {2db09963-cdd9-4c0a-a0a2-d51873a21a81}, !- Zone Air Node Name
  {eaa71de3-b25b-4d7c-afbc-b90ed94b1964}, !- Zone Return Air Port List
  ,                                       !- Primary Daylighting Control Name
  ,                                       !- Fraction of Zone Controlled by Primary Daylighting Control
  ,                                       !- Secondary Daylighting Control Name
  ,                                       !- Fraction of Zone Controlled by Secondary Daylighting Control
  ,                                       !- Illuminance Map Name
  ,                                       !- Group Rendering Name
  ,                                       !- Thermostat Name
  No;                                     !- Use Ideal Air Loads

OS:Node,
  {8d63266a-c9d5-42f9-a31d-649cfb0d06eb}, !- Handle
  Node 2,                                 !- Name
  {2db09963-cdd9-4c0a-a0a2-d51873a21a81}, !- Inlet Port
  ;                                       !- Outlet Port

OS:Connection,
  {2db09963-cdd9-4c0a-a0a2-d51873a21a81}, !- Handle
  {68cdf68d-295f-4644-8037-908e3055593e}, !- Name
  {e77572a3-aa39-41ab-abe4-b230085c4e50}, !- Source Object
  11,                                     !- Outlet Port
  {8d63266a-c9d5-42f9-a31d-649cfb0d06eb}, !- Target Object
  2;                                      !- Inlet Port

OS:PortList,
  {ba28f0d0-1c7d-4c96-82be-3e134b81d7ef}, !- Handle
  {60f7859b-1f19-4c6d-9f4f-523e8f27f7a6}, !- Name
  {e77572a3-aa39-41ab-abe4-b230085c4e50}; !- HVAC Component

OS:PortList,
  {8e55d85b-8483-49fe-9306-5f776572fd3a}, !- Handle
  {67868e35-77c7-4e58-9ec5-c0de2ba9f462}, !- Name
  {e77572a3-aa39-41ab-abe4-b230085c4e50}; !- HVAC Component

OS:PortList,
  {eaa71de3-b25b-4d7c-afbc-b90ed94b1964}, !- Handle
  {5da7cb37-a0b9-4c64-875b-23f5c4fa26a7}, !- Name
  {e77572a3-aa39-41ab-abe4-b230085c4e50}; !- HVAC Component

OS:Sizing:Zone,
  {85f0a030-30ef-4237-a75a-1b3c82730180}, !- Handle
  {e77572a3-aa39-41ab-abe4-b230085c4e50}, !- Zone or ZoneList Name
  SupplyAirTemperature,                   !- Zone Cooling Design Supply Air Temperature Input Method
  14,                                     !- Zone Cooling Design Supply Air Temperature {C}
  11.11,                                  !- Zone Cooling Design Supply Air Temperature Difference {deltaC}
  SupplyAirTemperature,                   !- Zone Heating Design Supply Air Temperature Input Method
  40,                                     !- Zone Heating Design Supply Air Temperature {C}
  11.11,                                  !- Zone Heating Design Supply Air Temperature Difference {deltaC}
  0.0085,                                 !- Zone Cooling Design Supply Air Humidity Ratio {kg-H2O/kg-air}
  0.008,                                  !- Zone Heating Design Supply Air Humidity Ratio {kg-H2O/kg-air}
  ,                                       !- Zone Heating Sizing Factor
  ,                                       !- Zone Cooling Sizing Factor
  DesignDay,                              !- Cooling Design Air Flow Method
  ,                                       !- Cooling Design Air Flow Rate {m3/s}
  ,                                       !- Cooling Minimum Air Flow per Zone Floor Area {m3/s-m2}
  ,                                       !- Cooling Minimum Air Flow {m3/s}
  ,                                       !- Cooling Minimum Air Flow Fraction
  DesignDay,                              !- Heating Design Air Flow Method
  ,                                       !- Heating Design Air Flow Rate {m3/s}
  ,                                       !- Heating Maximum Air Flow per Zone Floor Area {m3/s-m2}
  ,                                       !- Heating Maximum Air Flow {m3/s}
  ,                                       !- Heating Maximum Air Flow Fraction
  ,                                       !- Design Zone Air Distribution Effectiveness in Cooling Mode
  ,                                       !- Design Zone Air Distribution Effectiveness in Heating Mode
  No,                                     !- Account for Dedicated Outdoor Air System
  NeutralSupplyAir,                       !- Dedicated Outdoor Air System Control Strategy
  autosize,                               !- Dedicated Outdoor Air Low Setpoint Temperature for Design {C}
  autosize;                               !- Dedicated Outdoor Air High Setpoint Temperature for Design {C}

OS:ZoneHVAC:EquipmentList,
  {7d7cb32d-0ccd-4a87-9f56-1612a3964b0e}, !- Handle
  Zone HVAC Equipment List 2,             !- Name
  {e77572a3-aa39-41ab-abe4-b230085c4e50}; !- Thermal Zone

OS:Space,
  {1e141ca7-3e41-458e-a38a-19d500660ebd}, !- Handle
  Asm Auditorium C end_a - Story Ground,  !- Name
  {90c98962-7ad4-43ec-a381-4b831af20f36}, !- Space Type Name
  ,                                       !- Default Construction Set Name
  ,                                       !- Default Schedule Set Name
  -0,                                     !- Direction of Relative North {deg}
  -28.1024112360488,                      !- X Origin {m}
  23.5304112360488,                       !- Y Origin {m}
  0,                                      !- Z Origin {m}
  {72e67f4d-34a6-4c28-af8a-f8badebfdc7f}, !- Building Story Name
  {b7e28a97-9f81-44d7-8565-501f6ecfc996}; !- Thermal Zone Name

OS:Surface,
  {ce93555d-2909-41da-93f6-4b3421db8092}, !- Handle
  Surface 13,                             !- Name
  Floor,                                  !- Surface Type
  ,                                       !- Construction Name
  {1e141ca7-3e41-458e-a38a-19d500660ebd}, !- Space Name
  Ground,                                 !- Outside Boundary Condition
  ,                                       !- Outside Boundary Condition Object
  NoSun,                                  !- Sun Exposure
  NoWind,                                 !- Wind Exposure
  ,                                       !- View Factor to Ground
  ,                                       !- Number of Vertices
  -3.19744231092045e-014, 2.8421709430404e-014, 0, !- X,Y,Z Vertex 1 {m}
  -3.19744231092045e-014, 4.57200000000003, 0, !- X,Y,Z Vertex 2 {m}
  4.57199999999997, 4.57200000000003, 0,  !- X,Y,Z Vertex 3 {m}
  4.57199999999997, 2.8421709430404e-014, 0; !- X,Y,Z Vertex 4 {m}

OS:Surface,
  {5daa55b0-e114-4c2b-8ac2-55f3b3d1ea81}, !- Handle
  Surface 14,                             !- Name
  Wall,                                   !- Surface Type
  ,                                       !- Construction Name
  {1e141ca7-3e41-458e-a38a-19d500660ebd}, !- Space Name
  Outdoors,                               !- Outside Boundary Condition
  ,                                       !- Outside Boundary Condition Object
  SunExposed,                             !- Sun Exposure
  WindExposed,                            !- Wind Exposure
  ,                                       !- View Factor to Ground
  ,                                       !- Number of Vertices
  -3.19744231092045e-014, 4.57200000000003, 4.572, !- X,Y,Z Vertex 1 {m}
  -3.19744231092045e-014, 4.57200000000003, 0, !- X,Y,Z Vertex 2 {m}
  -3.19744231092045e-014, 2.8421709430404e-014, 0, !- X,Y,Z Vertex 3 {m}
  -3.19744231092045e-014, 2.8421709430404e-014, 4.572; !- X,Y,Z Vertex 4 {m}

OS:Surface,
  {2a8c1351-8d6a-4403-b514-347f0ce339a1}, !- Handle
  Surface 15,                             !- Name
  Wall,                                   !- Surface Type
  ,                                       !- Construction Name
  {1e141ca7-3e41-458e-a38a-19d500660ebd}, !- Space Name
  Outdoors,                               !- Outside Boundary Condition
  ,                                       !- Outside Boundary Condition Object
  SunExposed,                             !- Sun Exposure
  WindExposed,                            !- Wind Exposure
  ,                                       !- View Factor to Ground
  ,                                       !- Number of Vertices
  4.57199999999997, 4.57200000000003, 4.572, !- X,Y,Z Vertex 1 {m}
  4.57199999999997, 4.57200000000003, 0,  !- X,Y,Z Vertex 2 {m}