
OS:Version,
  {eb643603-8aab-4c6d-80b0-41bbf85e3265}, !- Handle
  2.7.0;                                  !- Version Identifier

OS:SpaceType,
  {3eee852a-cfaf-4269-acf9-a359b7c8bbc5}, !- Handle
  ECC Classroom,                          !- Name
  ,                                       !- Default Construction Set Name
  ,                                       !- Default Schedule Set Name
  ,                                       !- Group Rendering Name
  ,                                       !- Design Specification Outdoor Air Object Name
  ,                                       !- Standards Template
  ECC,                                    !- Standards Building Type
  Classroom;                              !- Standards Space Type

OS:SpaceType,
  {43bac02c-8e99-4831-8482-cff5f783aafd}, !- Handle
  ECC CompRoomClassRm,                    !- Name
  ,                                       !- Default Construction Set Name
  ,                                       !- Default Schedule Set Name
  ,                                       !- Group Rendering Name
  ,                                       !- Design Specification Outdoor Air Object Name
  ,                                       !- Standards Template
  ECC,                                    !- Standards Building Type
  CompRoomClassRm;                        !- Standards Space Type

OS:SpaceType,
  {ba439b0f-ce47-4696-818a-9a19f82ae6bb}, !- Handle
  ECC Shop,                               !- Name
  ,                                       !- Default Construction Set Name
  ,                                       !- Default Schedule Set Name
  ,                                       !- Group Rendering Name
  ,                                       !- Design Specification Outdoor Air Object Name
  ,                                       !- Standards Template
  ECC,                                    !- Standards Building Type
  Shop;                                   !- Standards Space Type

OS:SpaceType,
  {2f4286dc-9f9d-454b-9d12-ae8e6e2d11d6}, !- Handle
  ECC Dining,                             !- Name
  ,                                       !- Default Construction Set Name
  ,                                       !- Default Schedule Set Name
  ,                                       !- Group Rendering Name
  ,                                       !- Design Specification Outdoor Air Object Name
  ,                                       !- Standards Template
  ECC,                                    !- Standards Building Type
  Dining;                                 !- Standards Space Type

OS:SpaceType,
  {e8da4e64-ffee-4231-817f-9e2de56f7112}, !- Handle
  ECC Kitchen,                            !- Name
  ,                                       !- Default Construction Set Name
  ,                                       !- Default Schedule Set Name
  ,                                       !- Group Rendering Name
  ,                                       !- Design Specification Outdoor Air Object Name
  ,                                       !- Standards Template
  ECC,                                    !- Standards Building Type
  Kitchen;                                !- Standards Space Type

OS:SpaceType,
  {e0936ffc-13f5-4a9c-8bd5-25b74bc3a8e5}, !- Handle
  ECC OfficeGeneral,                      !- Name
  ,                                       !- Default Construction Set Name
  ,                                       !- Default Schedule Set Name
  ,                                       !- Group Rendering Name
  ,                                       !- Design Specification Outdoor Air Object Name
  ,                                       !- Standards Template
  ECC,                                    !- Standards Building Type
  OfficeGeneral;                          !- Standards Space Type

OS:Building,
  {804aacb8-437e-42c4-9166-5db93c31b9f7}, !- Handle
  DEER Pre-1975|ECC,                      !- Name
  ,                                       !- Building Sector Type
  ,                                       !- North Axis {deg}
  ,                                       !- Nominal Floor to Floor Height {m}
  ,                                       !- Space Type Name
  ,                                       !- Default Construction Set Name
  ;                                       !- Default Schedule Set Name

OS:Site,
  {2a78dbda-0ced-4b55-89a8-d04b7b7723b5}, !- Handle
  Site 1,                                 !- Name
  ,                                       !- Latitude {deg}
  ,                                       !- Longitude {deg}
  ,                                       !- Time Zone {hr}
  ,                                       !- Elevation {m}
  ;                                       !- Terrain

OS:BuildingStory,
  {a7bce48c-a977-4d47-9e88-b7a5df924c55}, !- Handle
  Story Ground,                           !- Name
  0,                                      !- Nominal Z Coordinate {m}
  3.9624,                                 !- Nominal Floor to Floor Height {m}
  ,                                       !- Default Construction Set Name
  ,                                       !- Default Schedule Set Name
  ;                                       !- Group Rendering Name

OS:Space,
  {86535547-a658-4da9-a72c-25c1d9c28579}, !- Handle
  ECC Classroom A end_a - Story Ground,   !- Name
  {3eee852a-cfaf-4269-acf9-a359b7c8bbc5}, !- Space Type Name
  ,                                       !- Default Construction Set Name
  ,                                       !- Default Schedule Set Name
  -0,                                     !- Direction of Relative North {deg}
  -52.8066329870027,                      !- X Origin {m}
  -13.2016582467507,                      !- Y Origin {m}
  0,                                      !- Z Origin {m}
  {a7bce48c-a977-4d47-9e88-b7a5df924c55}, !- Building Story Name
  {2e2080e1-97ff-45a7-b1eb-5971f2de10c8}; !- Thermal Zone Name

OS:Surface,
  {f6ae16aa-4f4b-4815-8dcc-72296346ec65}, !- Handle
  Surface 1,                              !- Name
  Floor,                                  !- Surface Type
  ,                                       !- Construction Name
  {86535547-a658-4da9-a72c-25c1d9c28579}, !- Space Name
  Ground,                                 !- Outside Boundary Condition
  ,                                       !- Outside Boundary Condition Object
  NoSun,                                  !- Sun Exposure
  NoWind,                                 !- Wind Exposure
  ,                                       !- View Factor to Ground
  ,                                       !- Number of Vertices
  -1.4210854715202e-014, -2.8421709430404e-014, 0, !- X,Y,Z Vertex 1 {m}
  -1.4210854715202e-014, 4.572, 0,        !- X,Y,Z Vertex 2 {m}
  4.57199999999999, 4.572, 0,             !- X,Y,Z Vertex 3 {m}
  4.57199999999999, -2.8421709430404e-014, 0; !- X,Y,Z Vertex 4 {m}

OS:Surface,
  {dfa9bad8-3006-46e0-8f0f-3acf54c24c68}, !- Handle
  Surface 2,                              !- Name
  Wall,                                   !- Surface Type
  ,                                       !- Construction Name
  {86535547-a658-4da9-a72c-25c1d9c28579}, !- Space Name
  Outdoors,                               !- Outside Boundary Condition
  ,                                       !- Outside Boundary Condition Object
  SunExposed,                             !- Sun Exposure
  WindExposed,                            !- Wind Exposure
  ,                                       !- View Factor to Ground
  ,                                       !- Number of Vertices
  -1.4210854715202e-014, 4.572, 3.9624,   !- X,Y,Z Vertex 1 {m}
  -1.4210854715202e-014, 4.572, 0,        !- X,Y,Z Vertex 2 {m}
  -1.4210854715202e-014, -2.8421709430404e-014, 0, !- X,Y,Z Vertex 3 {m}
  -1.4210854715202e-014, -2.8421709430404e-014, 3.9624; !- X,Y,Z Vertex 4 {m}

OS:Surface,
  {1bd64f8c-b2a9-433e-be60-54c2baf3f460}, !- Handle
  Surface 3,                              !- Name
  Wall,                                   !- Surface Type
  ,                                       !- Construction Name
  {86535547-a658-4da9-a72c-25c1d9c28579}, !- Space Name
  Surface,                                !- Outside Boundary Condition
  {118905b0-10f2-406b-bd7c-051f2af98b69}, !- Outside Boundary Condition Object
  NoSun,                                  !- Sun Exposure
  NoWind,                                 !- Wind Exposure
  ,                                       !- View Factor to Ground
  ,                                       !- Number of Vertices
  4.57199999999999, 4.572, 3.9624,        !- X,Y,Z Vertex 1 {m}
  4.57199999999999, 4.572, 0,             !- X,Y,Z Vertex 2 {m}
  -1.4210854715202e-014, 4.572, 0,        !- X,Y,Z Vertex 3 {m}
  -1.4210854715202e-014, 4.572, 3.9624;   !- X,Y,Z Vertex 4 {m}

OS:Surface,
  {262a5941-2ad8-4e3d-9e3c-3b9acaa3cdee}, !- Handle
  Surface 4,                              !- Name
  Wall,                                   !- Surface Type
  ,                                       !- Construction Name
  {86535547-a658-4da9-a72c-25c1d9c28579}, !- Space Name
  Surface,                                !- Outside Boundary Condition
  {35090b22-0c9f-47d5-a30d-44a25f81fba0}, !- Outside Boundary Condition Object
  NoSun,                                  !- Sun Exposure
  NoWind,                                 !- Wind Exposure
  ,                                       !- View Factor to Ground
  ,                                       !- Number of Vertices
  4.57199999999999, -2.8421709430404e-014, 3.9624, !- X,Y,Z Vertex 1 {m}
  4.57199999999999, -2.8421709430404e-014, 0, !- X,Y,Z Vertex 2 {m}
  4.57199999999999, 4.572, 0,             !- X,Y,Z Vertex 3 {m}
  4.57199999999999, 4.572, 3.9624;        !- X,Y,Z Vertex 4 {m}

OS:Surface,
  {c849c357-f19a-48ee-9b2a-6a9be35291f0}, !- Handle
  Surface 5,                              !- Name
  Wall,                                   !- Surface Type
  ,                                       !- Construction Name
  {86535547-a658-4da9-a72c-25c1d9c28579}, !- Space Name
  Outdoors,                               !- Outside Boundary Condition
  ,                                       !- Outside Boundary Condition Object
  SunExposed,                             !- Sun Exposure
  WindExposed,                            !- Wind Exposure
  ,                                       !- View Factor to Ground
  ,                                       !- Number of Vertices
  -1.4210854715202e-014, -2.8421709430404e-014, 3.9624, !- X,Y,Z Vertex 1 {m}
  -1.4210854715202e-014, -2.8421709430404e-014, 0, !- X,Y,Z Vertex 2 {m}
  4.57199999999999, -2.8421709430404e-014, 0, !- X,Y,Z Vertex 3 {m}
  4.57199999999999, -2.8421709430404e-014, 3.9624; !- X,Y,Z Vertex 4 {m}

OS:Surface,
  {90565c80-8e99-4ee1-be18-7cb9c4a57b0a}, !- Handle
  Surface 6,                              !- Name
  RoofCeiling,                            !- Surface Type
  ,                                       !- Construction Name
  {86535547-a658-4da9-a72c-25c1d9c28579}, !- Space Name
  Adiabatic,                              !- Outside Boundary Condition
  ,                                       !- Outside Boundary Condition Object
  NoSun,                                  !- Sun Exposure
  NoWind,                                 !- Wind Exposure
  ,                                       !- View Factor to Ground
  ,                                       !- Number of Vertices
  4.57199999999999, -2.8421709430404e-014, 3.9624, !- X,Y,Z Vertex 1 {m}
  4.57199999999999, 4.572, 3.9624,        !- X,Y,Z Vertex 2 {m}
  -1.4210854715202e-014, 4.572, 3.9624,   !- X,Y,Z Vertex 3 {m}
  -1.4210854715202e-014, -2.8421709430404e-014, 3.9624; !- X,Y,Z Vertex 4 {m}

OS:ThermalZone,
  {2e2080e1-97ff-45a7-b1eb-5971f2de10c8}, !- Handle
  Zone ECC Classroom A end_a - Story Ground, !- Name
  1,                                      !- Multiplier
  ,                                       !- Ceiling Height {m}
  ,                                       !- Volume {m3}
  ,                                       !- Floor Area {m2}
  ,                                       !- Zone Inside Convection Algorithm
  ,                                       !- Zone Outside Convection Algorithm
  ,                                       !- Zone Conditioning Equipment List Name
  {814284b6-7e34-4f60-b6d2-5e60f5f92e94}, !- Zone Air Inlet Port List
  {215c9780-b2fe-4db5-989f-e638a0c414f2}, !- Zone Air Exhaust Port List
  {13f5d557-1fa2-48d0-804f-ef3949ea9cea}, !- Zone Air Node Name
  {ec3c04a5-bee0-4fd6-8293-2696baf761de}, !- Zone Return Air Port List
  ,                                       !- Primary Daylighting Control Name
  ,                                       !- Fraction of Zone Controlled by Primary Daylighting Control
  ,                                       !- Secondary Daylighting Control Name
  ,                                       !- Fraction of Zone Controlled by Secondary Daylighting Control
  ,                                       !- Illuminance Map Name
  ,                                       !- Group Rendering Name
  ,                                       !- Thermostat Name
  No;                                     !- Use Ideal Air Loads

OS:Node,
  {85f5c6fb-574a-41bf-90d2-dd2e29abc2c7}, !- Handle
  Node 1,                                 !- Name
  {13f5d557-1fa2-48d0-804f-ef3949ea9cea}, !- Inlet Port
  ;                                       !- Outlet Port

OS:Connection,
  {13f5d557-1fa2-48d0-804f-ef3949ea9cea}, !- Handle
  {36fd0332-c044-474b-a41f-2af4ef39ffe3}, !- Name
  {2e2080e1-97ff-45a7-b1eb-5971f2de10c8}, !- Source Object
  11,                                     !- Outlet Port
  {85f5c6fb-574a-41bf-90d2-dd2e29abc2c7}, !- Target Object
  2;                                      !- Inlet Port

OS:PortList,
  {814284b6-7e34-4f60-b6d2-5e60f5f92e94}, !- Handle
  {e401f9b6-2af7-443f-8ec6-c4356c0fbd29}, !- Name
  {2e2080e1-97ff-45a7-b1eb-5971f2de10c8}; !- HVAC Component

OS:PortList,
  {215c9780-b2fe-4db5-989f-e638a0c414f2}, !- Handle
  {e36ea352-d004-4d25-a49c-5a6be0804e72}, !- Name
  {2e2080e1-97ff-45a7-b1eb-5971f2de10c8}; !- HVAC Component

OS:PortList,
  {ec3c04a5-bee0-4fd6-8293-2696baf761de}, !- Handle
  {7d835a4e-51b6-4598-80d7-a1837ba8231b}, !- Name
  {2e2080e1-97ff-45a7-b1eb-5971f2de10c8}; !- HVAC Component

OS:Sizing:Zone,
  {49f34364-ac32-48a7-8c6f-45b179b61c94}, !- Handle
  {2e2080e1-97ff-45a7-b1eb-5971f2de10c8}, !- Zone or ZoneList Name
  SupplyAirTemperature,                   !- Zone Cooling Design Supply Air Temperature Input Method
  14,                                     !- Zone Cooling Design Supply Air Temperature {C}
  11.11,                                  !- Zone Cooling Design Supply Air Temperature Difference {deltaC}
  SupplyAirTemperature,                   !- Zone Heating Design Supply Air Temperature Input Method
  40,                                     !- Zone Heating Design Supply Air Temperature {C}
  11.11,                                  !- Zone Heating Design Supply Air Temperature Difference {deltaC}
  0.0085,                                 !- Zone Cooling Design Supply Air Humidity Ratio {kg-H2O/kg-air}
  0.008,                                  !- Zone Heating Design Supply Air Humidity Ratio {kg-H2O/kg-air}
  ,                                       !- Zone Heating Sizing Factor
  ,                                       !- Zone Cooling Sizing Factor
  DesignDay,                              !- Cooling Design Air Flow Method
  ,                                       !- Cooling Design Air Flow Rate {m3/s}
  ,                                       !- Cooling Minimum Air Flow per Zone Floor Area {m3/s-m2}
  ,                                       !- Cooling Minimum Air Flow {m3/s}
  ,                                       !- Cooling Minimum Air Flow Fraction
  DesignDay,                              !- Heating Design Air Flow Method
  ,                                       !- Heating Design Air Flow Rate {m3/s}
  ,                                       !- Heating Maximum Air Flow per Zone Floor Area {m3/s-m2}
  ,                                       !- Heating Maximum Air Flow {m3/s}
  ,                                       !- Heating Maximum Air Flow Fraction
  ,                                       !- Design Zone Air Distribution Effectiveness in Cooling Mode
  ,                                       !- Design Zone Air Distribution Effectiveness in Heating Mode
  No,                                     !- Account for Dedicated Outdoor Air System
  NeutralSupplyAir,                       !- Dedicated Outdoor Air System Control Strategy
  autosize,                               !- Dedicated Outdoor Air Low Setpoint Temperature for Design {C}
  autosize;                               !- Dedicated Outdoor Air High Setpoint Temperature for Design {C}

OS:ZoneHVAC:EquipmentList,
  {f3c0b90b-a0c0-4205-9071-97feb2bd5b0a}, !- Handle
  Zone HVAC Equipment List 1,             !- Name
  {2e2080e1-97ff-45a7-b1eb-5971f2de10c8}; !- Thermal Zone

OS:Space,
  {e91c6b84-e893-4c6f-97ba-0ac024c60770}, !- Handle
  ECC Classroom B end_a - Story Ground,   !- Name
  {3eee852a-cfaf-4269-acf9-a359b7c8bbc5}, !- Space Type Name
  ,                                       !- Default Construction Set Name
  ,                                       !- Default Schedule Set Name
  -0,                                     !- Direction of Relative North {deg}
  -52.8066329870027,                      !- X Origin {m}
  -8.62965824675067,                      !- Y Origin {m}
  0,                                      !- Z Origin {m}
  {a7bce48c-a977-4d47-9e88-b7a5df924c55}, !- Building Story Name
  {604e10eb-b47a-4208-8d41-cc2710c7c675}; !- Thermal Zone Name

OS:Surface,
  {63551e37-4599-4ca4-bf09-51956e46dd87}, !- Handle
  Surface 7,                              !- Name
  Floor,                                  !- Surface Type
  ,                                       !- Construction Name
  {e91c6b84-e893-4c6f-97ba-0ac024c60770}, !- Space Name
  Ground,                                 !- Outside Boundary Condition
  ,                                       !- Outside Boundary Condition Object
  NoSun,                                  !- Sun Exposure
  NoWind,                                 !- Wind Exposure
  ,                                       !- View Factor to Ground
  ,                                       !- Number of Vertices
  -1.4210854715202e-014, 1.77635683940025e-015, 0, !- X,Y,Z Vertex 1 {m}
  -1.4210854715202e-014, 17.2593164935013, 0, !- X,Y,Z Vertex 2 {m}
  4.57199999999999, 17.2593164935013, 0,  !- X,Y,Z Vertex 3 {m}
  4.57199999999999, 1.77635683940025e-015, 0; !- X,Y,Z Vertex 4 {m}

OS:Surface,
  {a2bc6403-19db-4463-bd30-5615ac9f6f25}, !- Handle
  Surface 8,                              !- Name
  Wall,                                   !- Surface Type
  ,                                       !- Construction Name
  {e91c6b84-e893-4c6f-97ba-0ac024c60770}, !- Space Name
  Outdoors,                               !- Outside Boundary Condition
  ,                                       !- Outside Boundary Condition Object
  SunExposed,                             !- Sun Exposure
  WindExposed,                            !- Wind Exposure
  ,                                       !- View Factor to Ground
  ,                                       !- Number of Vertices
  -1.4210854715202e-014, 17.2593164935013, 3.9624, !- X,Y,Z Vertex 1 {m}
  -1.4210854715202e-014, 17.2593164935013, 0, !- X,Y,Z Vertex 2 {m}
  -1.4210854715202e-014, 1.77635683940025e-015, 0, !- X,Y,Z Vertex 3 {m}
  -1.4210854715202e-014, 1.77635683940025e-015, 3.9624; !- X,Y,Z Vertex 4 {m}

OS:Surface,
  {e7193975-c7d7-4df0-863e-61174bb842f9}, !- Handle
  Surface 9,                              !- Name
  Wall,                                   !- Surface Type
  ,                                       !- Construction Name
  {e91c6b84-e893-4c6f-97ba-0ac024c60770}, !- Space Name
  Surface,                                !- Outside Boundary Condition
  {2ce9713f-1123-46f5-a1cc-43835b8dd140}, !- Outside Boundary Condition Object
  NoSun,                                  !- Sun Exposure
  NoWind,                                 !- Wind Exposure
  ,                                       !- View Factor to Ground
  ,                                       !- Number of Vertices
  4.57199999999999, 17.2593164935013, 3.9624, !- X,Y,Z Vertex 1 {m}
  4.57199999999999, 17.2593164935013, 0,  !- X,Y,Z Vertex 2 {m}
  -1.4210854715202e-014, 17.2593164935013, 0, !- X,Y,Z Vertex 3 {m}
  -1.4210854715202e-014, 17.2593164935013, 3.9624; !- X,Y,Z Vertex 4 {m}

OS:Surface,
  {b57b1d1f-2140-4600-a9cc-3b10a877e78e}, !- Handle
  Surface 10,                             !- Name
  Wall,                                   !- Surface Type
  ,                                       !- Construction Name
  {e91c6b84-e893-4c6f-97ba-0ac024c60770}, !- Space Name
  Surface,                                !- Outside Boundary Condition
  {11f915c4-f704-4fac-9e13-57904cf7e124}, !- Outside Boundary Condition Object
  NoSun,                                  !- Sun Exposure
  NoWind,                                 !- Wind Exposure
  ,                                       !- View Factor to Ground
  ,                                       !- Number of Vertices
  4.57199999999999, 1.77635683940025e-015, 3.9624, !- X,Y,Z Vertex 1 {m}
  4.57199999999999, 1.77635683940025e-015, 0, !- X,Y,Z Vertex 2 {m}
  4.57199999999999, 17.2593164935013, 0,  !- X,Y,Z Vertex 3 {m}
  4.57199999999999, 17.2593164935013, 3.9624; !- X,Y,Z Vertex 4 {m}

OS:Surface,
  {118905b0-10f2-406b-bd7c-051f2af98b69}, !- Handle
  Surface 11,                             !- Name
  Wall,                                   !- Surface Type
  ,                                       !- Construction Name
  {e91c6b84-e893-4c6f-97ba-0ac024c60770}, !- Space Name
  Surface,                                !- Outside Boundary Condition
  {1bd64f8c-b2a9-433e-be60-54c2baf3f460}, !- Outside Boundary Condition Object
  NoSun,                                  !- Sun Exposure
  NoWind,                                 !- Wind Exposure
  ,                                       !- View Factor to Ground
  ,                                       !- Number of Vertices
  -1.4210854715202e-014, 1.77635683940025e-015, 3.9624, !- X,Y,Z Vertex 1 {m}
  -1.4210854715202e-014, 1.77635683940025e-015, 0, !- X,Y,Z Vertex 2 {m}
  4.57199999999999, 1.77635683940025e-015, 0, !- X,Y,Z Vertex 3 {m}
  4.57199999999999, 1.77635683940025e-015, 3.9624; !- X,Y,Z Vertex 4 {m}

OS:Surface,
  {33d1c037-359b-4c09-baec-c602f97d382a}, !- Handle
  Surface 12,                             !- Name
  RoofCeiling,                            !- Surface Type
  ,                                       !- Construction Name
  {e91c6b84-e893-4c6f-97ba-0ac024c60770}, !- Space Name
  Adiabatic,                              !- Outside Boundary Condition
  ,                                       !- Outside Boundary Condition Object
  NoSun,                                  !- Sun Exposure
  NoWind,                                 !- Wind Exposure
  ,                                       !- View Factor to Ground
  ,                                       !- Number of Vertices
  4.57199999999999, 1.77635683940025e-015, 3.9624, !- X,Y,Z Vertex 1 {m}
  4.57199999999999, 17.2593164935013, 3.9624, !- X,Y,Z Vertex 2 {m}
  -1.4210854715202e-014, 17.2593164935013, 3.9624, !- X,Y,Z Vertex 3 {m}
  -1.4210854715202e-014, 1.77635683940025e-015, 3.9624; !- X,Y,Z Vertex 4 {m}

OS:ThermalZone,
  {604e10eb-b47a-4208-8d41-cc2710c7c675}, !- Handle
  Zone ECC Classroom B end_a - Story Ground, !- Name
  1,                                      !- Multiplier
  ,                                       !- Ceiling Height {m}
  ,                                       !- Volume {m3}
  ,                                       !- Floor Area {m2}
  ,                                       !- Zone Inside Convection Algorithm
  ,                                       !- Zone Outside Convection Algorithm
  ,                                       !- Zone Conditioning Equipment List Name
  {dd950110-cd6d-4fcc-aafb-f025a9ded487}, !- Zone Air Inlet Port List
  {e4ab5766-fb07-4ea6-9364-5047d97e0dbd}, !- Zone Air Exhaust Port List
  {3f5b5d61-a98e-4bae-a33f-ab369a0c99c5}, !- Zone Air Node Name
  {a11270f3-b4be-4f4c-8669-ca47b32af7de}, !- Zone Return Air Port List
  ,                                       !- Primary Daylighting Control Name
  ,                                       !- Fraction of Zone Controlled by Primary Daylighting Control
  ,                                       !- Secondary Daylighting Control Name
  ,                                       !- Fraction of Zone Controlled by Secondary Daylighting Control
  ,                                       !- Illuminance Map Name
  ,                                       !- Group Rendering Name
  ,                                       !- Thermostat Name
  No;                                     !- Use Ideal Air Loads

OS:Node,
  {dd11142e-0d22-4565-9808-dd6d3874bda6}, !- Handle
  Node 2,                                 !- Name
  {3f5b5d61-a98e-4bae-a33f-ab369a0c99c5}, !- Inlet Port
  ;                                       !- Outlet Port

OS:Connection,
  {3f5b5d61-a98e-4bae-a33f-ab369a0c99c5}, !- Handle
  {2420dbbd-3d52-46f0-bd96-afe4160ca125}, !- Name
  {604e10eb-b47a-4208-8d41-cc2710c7c675}, !- Source Object
  11,                                     !- Outlet Port
  {dd11142e-0d22-4565-9808-dd6d3874bda6}, !- Target Object
  2;                                      !- Inlet Port

OS:PortList,
  {dd950110-cd6d-4fcc-aafb-f025a9ded487}, !- Handle
  {f0be42e2-b058-48f6-94ff-a3a85ecc07f2}, !- Name
  {604e10eb-b47a-4208-8d41-cc2710c7c675}; !- HVAC Component

OS:PortList,
  {e4ab5766-fb07-4ea6-9364-5047d97e0dbd}, !- Handle
  {a00c549d-4f1c-4d4e-bb97-7cbba24f89b7}, !- Name
  {604e10eb-b47a-4208-8d41-cc2710c7c675}; !- HVAC Component

OS:PortList,
  {a11270f3-b4be-4f4c-8669-ca47b32af7de}, !- Handle
  {34e2b475-a659-4885-bc52-5f48e3a572a8}, !- Name
  {604e10eb-b47a-4208-8d41-cc2710c7c675}; !- HVAC Component

OS:Sizing:Zone,
  {585fb727-f253-4781-b449-6c22f5718764}, !- Handle
  {604e10eb-b47a-4208-8d41-cc2710c7c675}, !- Zone or ZoneList Name
  SupplyAirTemperature,                   !- Zone Cooling Design Supply Air Temperature Input Method
  14,                                     !- Zone Cooling Design Supply Air Temperature {C}
  11.11,                                  !- Zone Cooling Design Supply Air Temperature Difference {deltaC}
  SupplyAirTemperature,                   !- Zone Heating Design Supply Air Temperature Input Method
  40,                                     !- Zone Heating Design Supply Air Temperature {C}
  11.11,                                  !- Zone Heating Design Supply Air Temperature Difference {deltaC}
  0.0085,                                 !- Zone Cooling Design Supply Air Humidity Ratio {kg-H2O/kg-air}
  0.008,                                  !- Zone Heating Design Supply Air Humidity Ratio {kg-H2O/kg-air}
  ,                                       !- Zone Heating Sizing Factor
  ,                                       !- Zone Cooling Sizing Factor
  DesignDay,                              !- Cooling Design Air Flow Method
  ,                                       !- Cooling Design Air Flow Rate {m3/s}
  ,                                       !- Cooling Minimum Air Flow per Zone Floor Area {m3/s-m2}
  ,                                       !- Cooling Minimum Air Flow {m3/s}
  ,                                       !- Cooling Minimum Air Flow Fraction
  DesignDay,                              !- Heating Design Air Flow Method
  ,                                       !- Heating Design Air Flow Rate {m3/s}
  ,                                       !- Heating Maximum Air Flow per Zone Floor Area {m3/s-m2}
  ,                                       !- Heating Maximum Air Flow {m3/s}
  ,                                       !- Heating Maximum Air Flow Fraction
  ,                                       !- Design Zone Air Distribution Effectiveness in Cooling Mode
  ,                                       !- Design Zone Air Distribution Effectiveness in Heating Mode
  No,                                     !- Account for Dedicated Outdoor Air System
  NeutralSupplyAir,                       !- Dedicated Outdoor Air System Control Strategy
  autosize,                               !- Dedicated Outdoor Air Low Setpoint Temperature for Design {C}
  autosize;                               !- Dedicated Outdoor Air High Setpoint Temperature for Design {C}

OS:ZoneHVAC:EquipmentList,
  {6d413e0b-7091-4c4c-ae5c-8a2d5b8eb974}, !- Handle
  Zone HVAC Equipment List 2,             !- Name
  {604e10eb-b47a-4208-8d41-cc2710c7c675}; !- Thermal Zone

OS:Space,
  {45378f48-9a54-4ad3-a801-46364ffab257}, !- Handle
  ECC Classroom C end_a - Story Ground,   !- Name
  {3eee852a-cfaf-4269-acf9-a359b7c8bbc5}, !- Space Type Name
  ,                                       !- Default Construction Set Name
  ,                                       !- Default Schedule Set Name
  -0,                                     !- Direction of Relative North {deg}
  -52.8066329870027,                      !- X Origin {m}
  8.62965824675067,                       !- Y Origin {m}
  0,                                      !- Z Origin {m}
  {a7bce48c-a977-4d47-9e88-b7a5df924c55}, !- Building Story Name
  {b9df881b-0cc2-4934-a683-201e1bc96e1f}; !- Thermal Zone Name

OS:Surface,
  {7cc6ec3f-d94a-4619-a347-20d1a2bc1a9b}, !- Handle
  Surface 13,                             !- Name
  Floor,                                  !- Surface Type
  ,                                       !- Construction Name
  {45378f48-9a54-4ad3-a801-46364ffab257}, !- Space Name
  Ground,                                 !- Outside Boundary Condition