
OS:Version,
  {fa3710ed-85e6-4cf1-80b7-e474d038ad42}, !- Handle
  2.7.0;                                  !- Version Identifier

OS:SpaceType,
  {2115081a-d3b8-4ac9-989f-ebcce0774ab9}, !- Handle
  ESe Classroom,                          !- Name
  ,                                       !- Default Construction Set Name
  ,                                       !- Default Schedule Set Name
  ,                                       !- Group Rendering Name
  ,                                       !- Design Specification Outdoor Air Object Name
  ,                                       !- Standards Template
  ESe,                                    !- Standards Building Type
  Classroom;                              !- Standards Space Type

OS:SpaceType,
  {c9dcdd05-c4df-46e3-93af-224f9ae37d20}, !- Handle
  ESe Kitchen,                            !- Name
  ,                                       !- Default Construction Set Name
  ,                                       !- Default Schedule Set Name
  ,                                       !- Group Rendering Name
  ,                                       !- Design Specification Outdoor Air Object Name
  ,                                       !- Standards Template
  ESe,                                    !- Standards Building Type
  Kitchen;                                !- Standards Space Type

OS:SpaceType,
  {7c420cd5-b236-4791-ad86-24a0ab3908ca}, !- Handle
  ESe CompRoomClassRm,                    !- Name
  ,                                       !- Default Construction Set Name
  ,                                       !- Default Schedule Set Name
  ,                                       !- Group Rendering Name
  ,                                       !- Design Specification Outdoor Air Object Name
  ,                                       !- Standards Template
  ESe,                                    !- Standards Building Type
  CompRoomClassRm;                        !- Standards Space Type

OS:SpaceType,
  {593ff96e-2fef-4183-b73d-c636fe38293b}, !- Handle
  ESe Dining,                             !- Name
  ,                                       !- Default Construction Set Name
  ,                                       !- Default Schedule Set Name
  ,                                       !- Group Rendering Name
  ,                                       !- Design Specification Outdoor Air Object Name
  ,                                       !- Standards Template
  ESe,                                    !- Standards Building Type
  Dining;                                 !- Standards Space Type

OS:SpaceType,
  {32471430-c35a-4b92-bb6d-e118449ac2f3}, !- Handle
  ESe Gymnasium,                          !- Name
  ,                                       !- Default Construction Set Name
  ,                                       !- Default Schedule Set Name
  ,                                       !- Group Rendering Name
  ,                                       !- Design Specification Outdoor Air Object Name
  ,                                       !- Standards Template
  ESe,                                    !- Standards Building Type
  Gymnasium;                              !- Standards Space Type

OS:Building,
  {34c031a0-72cc-4c4f-8cfe-7ab67b5fbfd1}, !- Handle
  DEER Pre-1975|ESe,                      !- Name
  ,                                       !- Building Sector Type
  ,                                       !- North Axis {deg}
  ,                                       !- Nominal Floor to Floor Height {m}
  ,                                       !- Space Type Name
  ,                                       !- Default Construction Set Name
  ;                                       !- Default Schedule Set Name

OS:Site,
  {4b1f3581-6313-4f6d-baf0-b839316932a9}, !- Handle
  Site 1,                                 !- Name
  ,                                       !- Latitude {deg}
  ,                                       !- Longitude {deg}
  ,                                       !- Time Zone {hr}
  ,                                       !- Elevation {m}
  ;                                       !- Terrain

OS:BuildingStory,
  {f169119e-6b78-4081-a7c2-9a0d79340ca0}, !- Handle
  Story Ground,                           !- Name
  0,                                      !- Nominal Z Coordinate {m}
  3.9624,                                 !- Nominal Floor to Floor Height {m}
  ,                                       !- Default Construction Set Name
  ,                                       !- Default Schedule Set Name
  ;                                       !- Group Rendering Name

OS:Space,
  {a63d2e05-8fd0-4f0a-b145-01ac2b54a0be}, !- Handle
  ESe Classroom A end_a - Story Ground,   !- Name
  {2115081a-d3b8-4ac9-989f-ebcce0774ab9}, !- Space Type Name
  ,                                       !- Default Construction Set Name
  ,                                       !- Default Schedule Set Name
  -0,                                     !- Direction of Relative North {deg}
  -15.9044569904162,                      !- X Origin {m}
  -15.9044569904162,                      !- Y Origin {m}
  0,                                      !- Z Origin {m}
  {f169119e-6b78-4081-a7c2-9a0d79340ca0}, !- Building Story Name
  {fe0837e5-5dee-4d75-8a83-650e90e31a91}; !- Thermal Zone Name

OS:Surface,
  {92f81fcd-6c9c-46c2-b34b-15c7813f2acf}, !- Handle
  Surface 1,                              !- Name
  Floor,                                  !- Surface Type
  ,                                       !- Construction Name
  {a63d2e05-8fd0-4f0a-b145-01ac2b54a0be}, !- Space Name
  Ground,                                 !- Outside Boundary Condition
  ,                                       !- Outside Boundary Condition Object
  NoSun,                                  !- Sun Exposure
  NoWind,                                 !- Wind Exposure
  ,                                       !- View Factor to Ground
  ,                                       !- Number of Vertices
  3.90798504668055e-014, 4.08562073062058e-014, 0, !- X,Y,Z Vertex 1 {m}
  3.90798504668055e-014, 4.57200000000004, 0, !- X,Y,Z Vertex 2 {m}
  4.57200000000004, 4.57200000000004, 0,  !- X,Y,Z Vertex 3 {m}
  4.57200000000004, 4.08562073062058e-014, 0; !- X,Y,Z Vertex 4 {m}

OS:Surface,
  {13d849df-b9dc-4946-980c-795873d1c050}, !- Handle
  Surface 2,                              !- Name
  Wall,                                   !- Surface Type
  ,                                       !- Construction Name
  {a63d2e05-8fd0-4f0a-b145-01ac2b54a0be}, !- Space Name
  Outdoors,                               !- Outside Boundary Condition
  ,                                       !- Outside Boundary Condition Object
  SunExposed,                             !- Sun Exposure
  WindExposed,                            !- Wind Exposure
  ,                                       !- View Factor to Ground
  ,                                       !- Number of Vertices
  3.90798504668055e-014, 4.57200000000004, 3.9624, !- X,Y,Z Vertex 1 {m}
  3.90798504668055e-014, 4.57200000000004, 0, !- X,Y,Z Vertex 2 {m}
  3.90798504668055e-014, 4.08562073062058e-014, 0, !- X,Y,Z Vertex 3 {m}
  3.90798504668055e-014, 4.08562073062058e-014, 3.9624; !- X,Y,Z Vertex 4 {m}

OS:Surface,
  {8cce5138-5e04-4be3-afd8-7d50fb8d8fea}, !- Handle
  Surface 3,                              !- Name
  Wall,                                   !- Surface Type
  ,                                       !- Construction Name
  {a63d2e05-8fd0-4f0a-b145-01ac2b54a0be}, !- Space Name
  Surface,                                !- Outside Boundary Condition
  {1ebede30-a0e0-4d69-b298-e519a58018a9}, !- Outside Boundary Condition Object
  NoSun,                                  !- Sun Exposure
  NoWind,                                 !- Wind Exposure
  ,                                       !- View Factor to Ground
  ,                                       !- Number of Vertices
  4.57200000000004, 4.57200000000004, 3.9624, !- X,Y,Z Vertex 1 {m}
  4.57200000000004, 4.57200000000004, 0,  !- X,Y,Z Vertex 2 {m}
  3.90798504668055e-014, 4.57200000000004, 0, !- X,Y,Z Vertex 3 {m}
  3.90798504668055e-014, 4.57200000000004, 3.9624; !- X,Y,Z Vertex 4 {m}

OS:Surface,
  {5caf6938-e0b2-495c-bfce-e7740a95fc6d}, !- Handle
  Surface 4,                              !- Name
  Wall,                                   !- Surface Type
  ,                                       !- Construction Name
  {a63d2e05-8fd0-4f0a-b145-01ac2b54a0be}, !- Space Name
  Surface,                                !- Outside Boundary Condition
  {0bc8f3e1-3685-43f7-8f7f-6349e3dc3232}, !- Outside Boundary Condition Object
  NoSun,                                  !- Sun Exposure
  NoWind,                                 !- Wind Exposure
  ,                                       !- View Factor to Ground
  ,                                       !- Number of Vertices
  4.57200000000004, 4.08562073062058e-014, 3.9624, !- X,Y,Z Vertex 1 {m}
  4.57200000000004, 4.08562073062058e-014, 0, !- X,Y,Z Vertex 2 {m}
  4.57200000000004, 4.57200000000004, 0,  !- X,Y,Z Vertex 3 {m}
  4.57200000000004, 4.57200000000004, 3.9624; !- X,Y,Z Vertex 4 {m}

OS:Surface,
  {72e96603-0ca6-44be-bb1f-c3429e0ecf01}, !- Handle
  Surface 5,                              !- Name
  Wall,                                   !- Surface Type
  ,                                       !- Construction Name
  {a63d2e05-8fd0-4f0a-b145-01ac2b54a0be}, !- Space Name
  Outdoors,                               !- Outside Boundary Condition
  ,                                       !- Outside Boundary Condition Object
  SunExposed,                             !- Sun Exposure
  WindExposed,                            !- Wind Exposure
  ,                                       !- View Factor to Ground
  ,                                       !- Number of Vertices
  3.90798504668055e-014, 4.08562073062058e-014, 3.9624, !- X,Y,Z Vertex 1 {m}
  3.90798504668055e-014, 4.08562073062058e-014, 0, !- X,Y,Z Vertex 2 {m}
  4.57200000000004, 4.08562073062058e-014, 0, !- X,Y,Z Vertex 3 {m}
  4.57200000000004, 4.08562073062058e-014, 3.9624; !- X,Y,Z Vertex 4 {m}

OS:Surface,
  {00a067ce-91e4-4819-af46-6e34c7748c10}, !- Handle
  Surface 6,                              !- Name
  RoofCeiling,                            !- Surface Type
  ,                                       !- Construction Name
  {a63d2e05-8fd0-4f0a-b145-01ac2b54a0be}, !- Space Name
  Adiabatic,                              !- Outside Boundary Condition
  ,                                       !- Outside Boundary Condition Object
  NoSun,                                  !- Sun Exposure
  NoWind,                                 !- Wind Exposure
  ,                                       !- View Factor to Ground
  ,                                       !- Number of Vertices
  4.57200000000004, 4.08562073062058e-014, 3.9624, !- X,Y,Z Vertex 1 {m}
  4.57200000000004, 4.57200000000004, 3.9624, !- X,Y,Z Vertex 2 {m}
  3.90798504668055e-014, 4.57200000000004, 3.9624, !- X,Y,Z Vertex 3 {m}
  3.90798504668055e-014, 4.08562073062058e-014, 3.9624; !- X,Y,Z Vertex 4 {m}

OS:ThermalZone,
  {fe0837e5-5dee-4d75-8a83-650e90e31a91}, !- Handle
  Zone ESe Classroom A end_a - Story Ground, !- Name
  1,                                      !- Multiplier
  ,                                       !- Ceiling Height {m}
  ,                                       !- Volume {m3}
  ,                                       !- Floor Area {m2}
  ,                                       !- Zone Inside Convection Algorithm
  ,                                       !- Zone Outside Convection Algorithm
  ,                                       !- Zone Conditioning Equipment List Name
  {512f977a-1ccc-433d-ad5a-e34eac0df108}, !- Zone Air Inlet Port List
  {570a4fbc-7b4f-4b72-9c00-2889f845c485}, !- Zone Air Exhaust Port List
  {8cd3ac62-b255-4da2-8cf8-0c79a7c43b98}, !- Zone Air Node Name
  {e2e44b89-fb27-4721-9c3e-29ad14ccd434}, !- Zone Return Air Port List
  ,                                       !- Primary Daylighting Control Name
  ,                                       !- Fraction of Zone Controlled by Primary Daylighting Control
  ,                                       !- Secondary Daylighting Control Name
  ,                                       !- Fraction of Zone Controlled by Secondary Daylighting Control
  ,                                       !- Illuminance Map Name
  ,                                       !- Group Rendering Name
  ,                                       !- Thermostat Name
  No;                                     !- Use Ideal Air Loads

OS:Node,
  {06fa3f8f-71a0-4bb1-bb48-1615bfcb96ce}, !- Handle
  Node 1,                                 !- Name
  {8cd3ac62-b255-4da2-8cf8-0c79a7c43b98}, !- Inlet Port
  ;                                       !- Outlet Port

OS:Connection,
  {8cd3ac62-b255-4da2-8cf8-0c79a7c43b98}, !- Handle
  {7cf9c3de-5ff0-4f6f-b4f5-ebc7848d921a}, !- Name
  {fe0837e5-5dee-4d75-8a83-650e90e31a91}, !- Source Object
  11,                                     !- Outlet Port
  {06fa3f8f-71a0-4bb1-bb48-1615bfcb96ce}, !- Target Object
  2;                                      !- Inlet Port

OS:PortList,
  {512f977a-1ccc-433d-ad5a-e34eac0df108}, !- Handle
  {7ceb3f2f-9ab1-4ff6-9bf7-cbb8bf013982}, !- Name
  {fe0837e5-5dee-4d75-8a83-650e90e31a91}; !- HVAC Component

OS:PortList,
  {570a4fbc-7b4f-4b72-9c00-2889f845c485}, !- Handle
  {9dbdc9c0-5a3c-4726-a805-e22c1c1234ec}, !- Name
  {fe0837e5-5dee-4d75-8a83-650e90e31a91}; !- HVAC Component

OS:PortList,
  {e2e44b89-fb27-4721-9c3e-29ad14ccd434}, !- Handle
  {6d82e4c5-4be3-4e02-b664-125106b7a27d}, !- Name
  {fe0837e5-5dee-4d75-8a83-650e90e31a91}; !- HVAC Component

OS:Sizing:Zone,
  {551ec0c1-d395-49ee-9a28-88e15e255ceb}, !- Handle
  {fe0837e5-5dee-4d75-8a83-650e90e31a91}, !- Zone or ZoneList Name
  SupplyAirTemperature,                   !- Zone Cooling Design Supply Air Temperature Input Method
  14,                                     !- Zone Cooling Design Supply Air Temperature {C}
  11.11,                                  !- Zone Cooling Design Supply Air Temperature Difference {deltaC}
  SupplyAirTemperature,                   !- Zone Heating Design Supply Air Temperature Input Method
  40,                                     !- Zone Heating Design Supply Air Temperature {C}
  11.11,                                  !- Zone Heating Design Supply Air Temperature Difference {deltaC}
  0.0085,                                 !- Zone Cooling Design Supply Air Humidity Ratio {kg-H2O/kg-air}
  0.008,                                  !- Zone Heating Design Supply Air Humidity Ratio {kg-H2O/kg-air}
  ,                                       !- Zone Heating Sizing Factor
  ,                                       !- Zone Cooling Sizing Factor
  DesignDay,                              !- Cooling Design Air Flow Method
  ,                                       !- Cooling Design Air Flow Rate {m3/s}
  ,                                       !- Cooling Minimum Air Flow per Zone Floor Area {m3/s-m2}
  ,                                       !- Cooling Minimum Air Flow {m3/s}
  ,                                       !- Cooling Minimum Air Flow Fraction
  DesignDay,                              !- Heating Design Air Flow Method
  ,                                       !- Heating Design Air Flow Rate {m3/s}
  ,                                       !- Heating Maximum Air Flow per Zone Floor Area {m3/s-m2}
  ,                                       !- Heating Maximum Air Flow {m3/s}
  ,                                       !- Heating Maximum Air Flow Fraction
  ,                                       !- Design Zone Air Distribution Effectiveness in Cooling Mode
  ,                                       !- Design Zone Air Distribution Effectiveness in Heating Mode
  No,                                     !- Account for Dedicated Outdoor Air System
  NeutralSupplyAir,                       !- Dedicated Outdoor Air System Control Strategy
  autosize,                               !- Dedicated Outdoor Air Low Setpoint Temperature for Design {C}
  autosize;                               !- Dedicated Outdoor Air High Setpoint Temperature for Design {C}

OS:ZoneHVAC:EquipmentList,
  {c8045836-fbc6-45d6-86ba-f2795dc663d1}, !- Handle
  Zone HVAC Equipment List 1,             !- Name
  {fe0837e5-5dee-4d75-8a83-650e90e31a91}; !- Thermal Zone

OS:Space,
  {848f4af6-cf78-40d0-9dc0-9d821aea246f}, !- Handle
  ESe Classroom B end_a - Story Ground,   !- Name
  {2115081a-d3b8-4ac9-989f-ebcce0774ab9}, !- Space Type Name
  ,                                       !- Default Construction Set Name
  ,                                       !- Default Schedule Set Name
  -0,                                     !- Direction of Relative North {deg}
  -15.9044569904162,                      !- X Origin {m}
  -11.3324569904162,                      !- Y Origin {m}
  0,                                      !- Z Origin {m}
  {f169119e-6b78-4081-a7c2-9a0d79340ca0}, !- Building Story Name
  {1e281615-e6c3-410e-b23d-7d3df77017a6}; !- Thermal Zone Name

OS:Surface,
  {6b0f127a-403b-4e42-90f9-6639275ed3cd}, !- Handle
  Surface 7,                              !- Name
  Floor,                                  !- Surface Type
  ,                                       !- Construction Name
  {848f4af6-cf78-40d0-9dc0-9d821aea246f}, !- Space Name
  Ground,                                 !- Outside Boundary Condition
  ,                                       !- Outside Boundary Condition Object
  NoSun,                                  !- Sun Exposure
  NoWind,                                 !- Wind Exposure
  ,                                       !- View Factor to Ground
  ,                                       !- Number of Vertices
  3.90798504668055e-014, 4.08562073062058e-014, 0, !- X,Y,Z Vertex 1 {m}
  3.90798504668055e-014, 22.6649139808324, 0, !- X,Y,Z Vertex 2 {m}
  4.57200000000004, 22.6649139808324, 0,  !- X,Y,Z Vertex 3 {m}
  4.57200000000004, 4.08562073062058e-014, 0; !- X,Y,Z Vertex 4 {m}

OS:Surface,
  {6ae0a4a8-a7ad-479c-8448-c200c737df33}, !- Handle
  Surface 8,                              !- Name
  Wall,                                   !- Surface Type
  ,                                       !- Construction Name
  {848f4af6-cf78-40d0-9dc0-9d821aea246f}, !- Space Name
  Outdoors,                               !- Outside Boundary Condition
  ,                                       !- Outside Boundary Condition Object
  SunExposed,                             !- Sun Exposure
  WindExposed,                            !- Wind Exposure
  ,                                       !- View Factor to Ground
  ,                                       !- Number of Vertices
  3.90798504668055e-014, 22.6649139808324, 3.9624, !- X,Y,Z Vertex 1 {m}
  3.90798504668055e-014, 22.6649139808324, 0, !- X,Y,Z Vertex 2 {m}
  3.90798504668055e-014, 4.08562073062058e-014, 0, !- X,Y,Z Vertex 3 {m}
  3.90798504668055e-014, 4.08562073062058e-014, 3.9624; !- X,Y,Z Vertex 4 {m}

OS:Surface,
  {cec877a5-eaf9-4e7b-b434-e931244a2824}, !- Handle
  Surface 9,                              !- Name
  Wall,                                   !- Surface Type
  ,                                       !- Construction Name
  {848f4af6-cf78-40d0-9dc0-9d821aea246f}, !- Space Name
  Surface,                                !- Outside Boundary Condition
  {63b41ad6-8293-4b0a-a6be-d707d46e8ef6}, !- Outside Boundary Condition Object
  NoSun,                                  !- Sun Exposure
  NoWind,                                 !- Wind Exposure
  ,                                       !- View Factor to Ground
  ,                                       !- Number of Vertices
  4.57200000000004, 22.6649139808324, 3.9624, !- X,Y,Z Vertex 1 {m}
  4.57200000000004, 22.6649139808324, 0,  !- X,Y,Z Vertex 2 {m}
  3.90798504668055e-014, 22.6649139808324, 0, !- X,Y,Z Vertex 3 {m}
  3.90798504668055e-014, 22.6649139808324, 3.9624; !- X,Y,Z Vertex 4 {m}

OS:Surface,
  {c2efd653-05f5-457e-a3b2-317f8e091be2}, !- Handle
  Surface 10,                             !- Name
  Wall,                                   !- Surface Type
  ,                                       !- Construction Name
  {848f4af6-cf78-40d0-9dc0-9d821aea246f}, !- Space Name
  Surface,                                !- Outside Boundary Condition
  {0d4139e7-5223-41df-9d14-68b43ea68d50}, !- Outside Boundary Condition Object
  NoSun,                                  !- Sun Exposure
  NoWind,                                 !- Wind Exposure
  ,                                       !- View Factor to Ground
  ,                                       !- Number of Vertices
  4.57200000000004, 4.08562073062058e-014, 3.9624, !- X,Y,Z Vertex 1 {m}
  4.57200000000004, 4.08562073062058e-014, 0, !- X,Y,Z Vertex 2 {m}
  4.57200000000004, 22.6649139808324, 0,  !- X,Y,Z Vertex 3 {m}
  4.57200000000004, 22.6649139808324, 3.9624; !- X,Y,Z Vertex 4 {m}

OS:Surface,
  {1ebede30-a0e0-4d69-b298-e519a58018a9}, !- Handle
  Surface 11,                             !- Name
  Wall,                                   !- Surface Type
  ,                                       !- Construction Name
  {848f4af6-cf78-40d0-9dc0-9d821aea246f}, !- Space Name
  Surface,                                !- Outside Boundary Condition
  {8cce5138-5e04-4be3-afd8-7d50fb8d8fea}, !- Outside Boundary Condition Object
  NoSun,                                  !- Sun Exposure
  NoWind,                                 !- Wind Exposure
  ,                                       !- View Factor to Ground
  ,                                       !- Number of Vertices
  3.90798504668055e-014, 4.08562073062058e-014, 3.9624, !- X,Y,Z Vertex 1 {m}
  3.90798504668055e-014, 4.08562073062058e-014, 0, !- X,Y,Z Vertex 2 {m}
  4.57200000000004, 4.08562073062058e-014, 0, !- X,Y,Z Vertex 3 {m}
  4.57200000000004, 4.08562073062058e-014, 3.9624; !- X,Y,Z Vertex 4 {m}

OS:Surface,
  {b289146e-9351-4321-8e8b-d0d923a67f2c}, !- Handle
  Surface 12,                             !- Name
  RoofCeiling,                            !- Surface Type
  ,                                       !- Construction Name
  {848f4af6-cf78-40d0-9dc0-9d821aea246f}, !- Space Name
  Adiabatic,                              !- Outside Boundary Condition
  ,                                       !- Outside Boundary Condition Object
  NoSun,                                  !- Sun Exposure
  NoWind,                                 !- Wind Exposure
  ,                                       !- View Factor to Ground
  ,                                       !- Number of Vertices
  4.57200000000004, 4.08562073062058e-014, 3.9624, !- X,Y,Z Vertex 1 {m}
  4.57200000000004, 22.6649139808324, 3.9624, !- X,Y,Z Vertex 2 {m}
  3.90798504668055e-014, 22.6649139808324, 3.9624, !- X,Y,Z Vertex 3 {m}
  3.90798504668055e-014, 4.08562073062058e-014, 3.9624; !- X,Y,Z Vertex 4 {m}

OS:ThermalZone,
  {1e281615-e6c3-410e-b23d-7d3df77017a6}, !- Handle
  Zone ESe Classroom B end_a - Story Ground, !- Name
  1,                                      !- Multiplier
  ,                                       !- Ceiling Height {m}
  ,                                       !- Volume {m3}
  ,                                       !- Floor Area {m2}
  ,                                       !- Zone Inside Convection Algorithm
  ,                                       !- Zone Outside Convection Algorithm
  ,                                       !- Zone Conditioning Equipment List Name
  {5cd1b19c-d3ad-4884-a61f-e141b462aaeb}, !- Zone Air Inlet Port List
  {25800c30-b193-40e7-8b99-74552a04e43d}, !- Zone Air Exhaust Port List
  {ff196f5f-5a0c-4a9a-8e3e-5bdba0bf02b0}, !- Zone Air Node Name
  {03804d7e-3700-462e-af5d-c2a4afcadf9c}, !- Zone Return Air Port List
  ,                                       !- Primary Daylighting Control Name
  ,                                       !- Fraction of Zone Controlled by Primary Daylighting Control
  ,                                       !- Secondary Daylighting Control Name
  ,                                       !- Fraction of Zone Controlled by Secondary Daylighting Control
  ,                                       !- Illuminance Map Name
  ,                                       !- Group Rendering Name
  ,                                       !- Thermostat Name
  No;                                     !- Use Ideal Air Loads

OS:Node,
  {03387d4c-ad25-4cf2-bf13-513938a80ce8}, !- Handle
  Node 2,                                 !- Name
  {ff196f5f-5a0c-4a9a-8e3e-5bdba0bf02b0}, !- Inlet Port
  ;                                       !- Outlet Port

OS:Connection,
  {ff196f5f-5a0c-4a9a-8e3e-5bdba0bf02b0}, !- Handle
  {1f68613a-073d-4ed2-98e1-14046f9d090c}, !- Name
  {1e281615-e6c3-410e-b23d-7d3df77017a6}, !- Source Object
  11,                                     !- Outlet Port
  {03387d4c-ad25-4cf2-bf13-513938a80ce8}, !- Target Object
  2;                                      !- Inlet Port

OS:PortList,
  {5cd1b19c-d3ad-4884-a61f-e141b462aaeb}, !- Handle
  {821af26a-a3c8-4592-8147-7dd277d187ed}, !- Name
  {1e281615-e6c3-410e-b23d-7d3df77017a6}; !- HVAC Component

OS:PortList,
  {25800c30-b193-40e7-8b99-74552a04e43d}, !- Handle
  {f4912aef-163f-4258-83f7-d1a9a25e27fb}, !- Name
  {1e281615-e6c3-410e-b23d-7d3df77017a6}; !- HVAC Component

OS:PortList,
  {03804d7e-3700-462e-af5d-c2a4afcadf9c}, !- Handle
  {010197f1-25a7-47d5-a3b1-b0cd2ee34717}, !- Name
  {1e281615-e6c3-410e-b23d-7d3df77017a6}; !- HVAC Component

OS:Sizing:Zone,
  {bae03a24-0d8b-48d5-830e-cd4c62cc64c0}, !- Handle
  {1e281615-e6c3-410e-b23d-7d3df77017a6}, !- Zone or ZoneList Name
  SupplyAirTemperature,                   !- Zone Cooling Design Supply Air Temperature Input Method
  14,                                     !- Zone Cooling Design Supply Air Temperature {C}
  11.11,                                  !- Zone Cooling Design Supply Air Temperature Difference {deltaC}
  SupplyAirTemperature,                   !- Zone Heating Design Supply Air Temperature Input Method
  40,                                     !- Zone Heating Design Supply Air Temperature {C}
  11.11,                                  !- Zone Heating Design Supply Air Temperature Difference {deltaC}
  0.0085,                                 !- Zone Cooling Design Supply Air Humidity Ratio {kg-H2O/kg-air}
  0.008,                                  !- Zone Heating Design Supply Air Humidity Ratio {kg-H2O/kg-air}
  ,                                       !- Zone Heating Sizing Factor
  ,                                       !- Zone Cooling Sizing Factor
  DesignDay,                              !- Cooling Design Air Flow Method
  ,                                       !- Cooling Design Air Flow Rate {m3/s}
  ,                                       !- Cooling Minimum Air Flow per Zone Floor Area {m3/s-m2}
  ,                                       !- Cooling Minimum Air Flow {m3/s}
  ,                                       !- Cooling Minimum Air Flow Fraction
  DesignDay,                              !- Heating Design Air Flow Method
  ,                                       !- Heating Design Air Flow Rate {m3/s}
  ,                                       !- Heating Maximum Air Flow per Zone Floor Area {m3/s-m2}
  ,                                       !- Heating Maximum Air Flow {m3/s}
  ,                                       !- Heating Maximum Air Flow Fraction
  ,                                       !- Design Zone Air Distribution Effectiveness in Cooling Mode
  ,                                       !- Design Zone Air Distribution Effectiveness in Heating Mode
  No,                                     !- Account for Dedicated Outdoor Air System
  NeutralSupplyAir,                       !- Dedicated Outdoor Air System Control Strategy
  autosize,                               !- Dedicated Outdoor Air Low Setpoint Temperature for Design {C}
  autosize;                               !- Dedicated Outdoor Air High Setpoint Temperature for Design {C}

OS:ZoneHVAC:EquipmentList,
  {2178dc5b-7e50-4e06-8ed7-df3ec59c3020}, !- Handle
  Zone HVAC Equipment List 2,             !- Name
  {1e281615-e6c3-410e-b23d-7d3df77017a6}; !- Thermal Zone

OS:Space,
  {9501a878-b3fb-42f6-a6be-51f201e75f3c}, !- Handle
  ESe Classroom C end_a - Story Ground,   !- Name
  {2115081a-d3b8-4ac9-989f-ebcce0774ab9}, !- Space Type Name
  ,                                       !- Default Construction Set Name
  ,                                       !- Default Schedule Set Name
  -0,                                     !- Direction of Relative North {deg}
  -15.9044569904162,                      !- X Origin {m}
  11.3324569904162,                       !- Y Origin {m}
  0,                                      !- Z Origin {m}
  {f169119e-6b78-4081-a7c2-9a0d79340ca0}, !- Building Story Name
  {d7dead59-2fbb-4f55-ae6c-acfa93803e7e}; !- Thermal Zone Name

OS:Surface,
  {31eb0911-9194-4ae4-97c2-4d7e2c861683}, !- Handle
  Surface 13,                             !- Name
  Floor,                                  !- Surface Type
  ,                                       !- Construction Name
  {9501a878-b3fb-42f6-a6be-51f201e75f3c}, !- Space Name
  Ground,                                 !- Outside Boundary Condition
  ,                                       !- Outside Boundary Condition Object
  NoSun,                                  !- Sun Exposure
  NoWind,                                 !- Wind Exposure
  ,                                       !- View Factor to Ground
  ,                                       !- Number of Vertices
  3.90798504668055e-014, -4.08562073062058e-014, 0, !- X,Y,Z Vertex 1 {m}
  3.90798504668055e-014, 4.57199999999996, 0, !- X,Y,Z Vertex 2 {m}
  4.57200000000004, 4.57199999999996, 0,  !- X,Y,Z Vertex 3 {m}