
OS:Version,
  {57185871-6ccf-485e-8f21-1d98e458b9cc}, !- Handle
  2.7.0;                                  !- Version Identifier

OS:SpaceType,
  {a3bc19d7-146b-4df5-b0da-76666684e253}, !- Handle
  EUn Dining,                             !- Name
  ,                                       !- Default Construction Set Name
  ,                                       !- Default Schedule Set Name
  ,                                       !- Group Rendering Name
  ,                                       !- Design Specification Outdoor Air Object Name
  ,                                       !- Standards Template
  EUn,                                    !- Standards Building Type
  Dining;                                 !- Standards Space Type

OS:SpaceType,
  {a0b8992d-da48-4bcd-81d2-2c90610f2641}, !- Handle
  EUn Classroom,                          !- Name
  ,                                       !- Default Construction Set Name
  ,                                       !- Default Schedule Set Name
  ,                                       !- Group Rendering Name
  ,                                       !- Design Specification Outdoor Air Object Name
  ,                                       !- Standards Template
  EUn,                                    !- Standards Building Type
  Classroom;                              !- Standards Space Type

OS:SpaceType,
  {55988d8d-09ed-4887-939c-f0858e6b4df8}, !- Handle
  EUn OfficeGeneral,                      !- Name
  ,                                       !- Default Construction Set Name
  ,                                       !- Default Schedule Set Name
  ,                                       !- Group Rendering Name
  ,                                       !- Design Specification Outdoor Air Object Name
  ,                                       !- Standards Template
  EUn,                                    !- Standards Building Type
  OfficeGeneral;                          !- Standards Space Type

OS:SpaceType,
  {4d52f41f-f761-438f-882a-b74e82b11eeb}, !- Handle
  EUn CompRoomClassRm,                    !- Name
  ,                                       !- Default Construction Set Name
  ,                                       !- Default Schedule Set Name
  ,                                       !- Group Rendering Name
  ,                                       !- Design Specification Outdoor Air Object Name
  ,                                       !- Standards Template
  EUn,                                    !- Standards Building Type
  CompRoomClassRm;                        !- Standards Space Type

OS:SpaceType,
  {fad6f8f4-dddd-43b3-8ca1-3e618aa40282}, !- Handle
  EUn Kitchen,                            !- Name
  ,                                       !- Default Construction Set Name
  ,                                       !- Default Schedule Set Name
  ,                                       !- Group Rendering Name
  ,                                       !- Design Specification Outdoor Air Object Name
  ,                                       !- Standards Template
  EUn,                                    !- Standards Building Type
  Kitchen;                                !- Standards Space Type

OS:SpaceType,
  {6200559f-a07a-4249-990a-b35e0e5eb93b}, !- Handle
  EUn CorridorStairway,                   !- Name
  ,                                       !- Default Construction Set Name
  ,                                       !- Default Schedule Set Name
  ,                                       !- Group Rendering Name
  ,                                       !- Design Specification Outdoor Air Object Name
  ,                                       !- Standards Template
  EUn,                                    !- Standards Building Type
  CorridorStairway;                       !- Standards Space Type

OS:SpaceType,
  {35d8129c-e8ec-4a8a-8395-29d6c6870bb4}, !- Handle
  EUn FacMaint,                           !- Name
  ,                                       !- Default Construction Set Name
  ,                                       !- Default Schedule Set Name
  ,                                       !- Group Rendering Name
  ,                                       !- Design Specification Outdoor Air Object Name
  ,                                       !- Standards Template
  EUn,                                    !- Standards Building Type
  FacMaint;                               !- Standards Space Type

OS:SpaceType,
  {c8c8d5c6-1da6-417a-b3d8-b544e619f9f8}, !- Handle
  EUn DormitoryRoom,                      !- Name
  ,                                       !- Default Construction Set Name
  ,                                       !- Default Schedule Set Name
  ,                                       !- Group Rendering Name
  ,                                       !- Design Specification Outdoor Air Object Name
  ,                                       !- Standards Template
  EUn,                                    !- Standards Building Type
  DormitoryRoom;                          !- Standards Space Type

OS:Building,
  {318a78a1-70a9-4f0d-bd2d-a89cd3d8c9af}, !- Handle
  DEER Pre-1975|EUn,                      !- Name
  ,                                       !- Building Sector Type
  ,                                       !- North Axis {deg}
  ,                                       !- Nominal Floor to Floor Height {m}
  ,                                       !- Space Type Name
  ,                                       !- Default Construction Set Name
  ;                                       !- Default Schedule Set Name

OS:Site,
  {a516e4b0-7053-49b5-8d7c-866cc4cb0f51}, !- Handle
  Site 1,                                 !- Name
  ,                                       !- Latitude {deg}
  ,                                       !- Longitude {deg}
  ,                                       !- Time Zone {hr}
  ,                                       !- Elevation {m}
  ;                                       !- Terrain

OS:BuildingStory,
  {4955a3a6-048e-4134-8130-619182e581d7}, !- Handle
  Story Ground,                           !- Name
  0,                                      !- Nominal Z Coordinate {m}
  4.2672,                                 !- Nominal Floor to Floor Height {m}
  ,                                       !- Default Construction Set Name
  ,                                       !- Default Schedule Set Name
  ;                                       !- Group Rendering Name

OS:Space,
  {e11fe5e9-3ffc-42e9-8c6d-52434380eaae}, !- Handle
  EUn OfficeGeneral A end_a - Story Ground, !- Name
  {55988d8d-09ed-4887-939c-f0858e6b4df8}, !- Space Type Name
  ,                                       !- Default Construction Set Name
  ,                                       !- Default Schedule Set Name
  -0,                                     !- Direction of Relative North {deg}
  -56.7888562589528,                      !- X Origin {m}
  -22.7155425035811,                      !- Y Origin {m}
  0,                                      !- Z Origin {m}
  {4955a3a6-048e-4134-8130-619182e581d7}, !- Building Story Name
  {8e610469-546e-43a3-933f-ace007a6e912}; !- Thermal Zone Name

OS:Surface,
  {2948299e-b522-4abe-af43-1bf6d2961996}, !- Handle
  Surface 1,                              !- Name
  Floor,                                  !- Surface Type
  ,                                       !- Construction Name
  {e11fe5e9-3ffc-42e9-8c6d-52434380eaae}, !- Space Name
  Ground,                                 !- Outside Boundary Condition
  ,                                       !- Outside Boundary Condition Object
  NoSun,                                  !- Sun Exposure
  NoWind,                                 !- Wind Exposure
  ,                                       !- View Factor to Ground
  ,                                       !- Number of Vertices
  -2.8421709430404e-014, 1.06581410364015e-014, 0, !- X,Y,Z Vertex 1 {m}
  -2.8421709430404e-014, 4.57200000000001, 0, !- X,Y,Z Vertex 2 {m}
  4.57199999999997, 4.57200000000001, 0,  !- X,Y,Z Vertex 3 {m}
  4.57199999999997, 1.06581410364015e-014, 0; !- X,Y,Z Vertex 4 {m}

OS:Surface,
  {8fed080f-212d-487c-9b12-9d5b9ecab4d2}, !- Handle
  Surface 2,                              !- Name
  Wall,                                   !- Surface Type
  ,                                       !- Construction Name
  {e11fe5e9-3ffc-42e9-8c6d-52434380eaae}, !- Space Name
  Outdoors,                               !- Outside Boundary Condition
  ,                                       !- Outside Boundary Condition Object
  SunExposed,                             !- Sun Exposure
  WindExposed,                            !- Wind Exposure
  ,                                       !- View Factor to Ground
  ,                                       !- Number of Vertices
  -2.8421709430404e-014, 4.57200000000001, 4.2672, !- X,Y,Z Vertex 1 {m}
  -2.8421709430404e-014, 4.57200000000001, 0, !- X,Y,Z Vertex 2 {m}
  -2.8421709430404e-014, 1.06581410364015e-014, 0, !- X,Y,Z Vertex 3 {m}
  -2.8421709430404e-014, 1.06581410364015e-014, 4.2672; !- X,Y,Z Vertex 4 {m}

OS:Surface,
  {b7a2cf43-7b9f-4950-861a-3677d5be07e0}, !- Handle
  Surface 3,                              !- Name
  Wall,                                   !- Surface Type
  ,                                       !- Construction Name
  {e11fe5e9-3ffc-42e9-8c6d-52434380eaae}, !- Space Name
  Surface,                                !- Outside Boundary Condition
  {fc5ec753-dc22-4c42-b828-cc9f9abef8cb}, !- Outside Boundary Condition Object
  NoSun,                                  !- Sun Exposure
  NoWind,                                 !- Wind Exposure
  ,                                       !- View Factor to Ground
  ,                                       !- Number of Vertices
  4.57199999999997, 4.57200000000001, 4.2672, !- X,Y,Z Vertex 1 {m}
  4.57199999999997, 4.57200000000001, 0,  !- X,Y,Z Vertex 2 {m}
  -2.8421709430404e-014, 4.57200000000001, 0, !- X,Y,Z Vertex 3 {m}
  -2.8421709430404e-014, 4.57200000000001, 4.2672; !- X,Y,Z Vertex 4 {m}

OS:Surface,
  {cf071d86-0a1f-48f4-92ff-7e5c799d8f24}, !- Handle
  Surface 4,                              !- Name
  Wall,                                   !- Surface Type
  ,                                       !- Construction Name
  {e11fe5e9-3ffc-42e9-8c6d-52434380eaae}, !- Space Name
  Surface,                                !- Outside Boundary Condition
  {55bc891a-2870-401f-bdff-d7d75f0128a2}, !- Outside Boundary Condition Object
  NoSun,                                  !- Sun Exposure
  NoWind,                                 !- Wind Exposure
  ,                                       !- View Factor to Ground
  ,                                       !- Number of Vertices
  4.57199999999997, 1.06581410364015e-014, 4.2672, !- X,Y,Z Vertex 1 {m}
  4.57199999999997, 1.06581410364015e-014, 0, !- X,Y,Z Vertex 2 {m}
  4.57199999999997, 4.57200000000001, 0,  !- X,Y,Z Vertex 3 {m}
  4.57199999999997, 4.57200000000001, 4.2672; !- X,Y,Z Vertex 4 {m}

OS:Surface,
  {ca7e156a-0361-49c4-9258-9062596e1b47}, !- Handle
  Surface 5,                              !- Name
  Wall,                                   !- Surface Type
  ,                                       !- Construction Name
  {e11fe5e9-3ffc-42e9-8c6d-52434380eaae}, !- Space Name
  Outdoors,                               !- Outside Boundary Condition
  ,                                       !- Outside Boundary Condition Object
  SunExposed,                             !- Sun Exposure
  WindExposed,                            !- Wind Exposure
  ,                                       !- View Factor to Ground
  ,                                       !- Number of Vertices
  -2.8421709430404e-014, 1.06581410364015e-014, 4.2672, !- X,Y,Z Vertex 1 {m}
  -2.8421709430404e-014, 1.06581410364015e-014, 0, !- X,Y,Z Vertex 2 {m}
  4.57199999999997, 1.06581410364015e-014, 0, !- X,Y,Z Vertex 3 {m}
  4.57199999999997, 1.06581410364015e-014, 4.2672; !- X,Y,Z Vertex 4 {m}

OS:Surface,
  {383f2c8c-b906-4b75-941e-e40dc484d76e}, !- Handle
  Surface 6,                              !- Name
  RoofCeiling,                            !- Surface Type
  ,                                       !- Construction Name
  {e11fe5e9-3ffc-42e9-8c6d-52434380eaae}, !- Space Name
  Adiabatic,                              !- Outside Boundary Condition
  ,                                       !- Outside Boundary Condition Object
  NoSun,                                  !- Sun Exposure
  NoWind,                                 !- Wind Exposure
  ,                                       !- View Factor to Ground
  ,                                       !- Number of Vertices
  4.57199999999997, 1.06581410364015e-014, 4.2672, !- X,Y,Z Vertex 1 {m}
  4.57199999999997, 4.57200000000001, 4.2672, !- X,Y,Z Vertex 2 {m}
  -2.8421709430404e-014, 4.57200000000001, 4.2672, !- X,Y,Z Vertex 3 {m}
  -2.8421709430404e-014, 1.06581410364015e-014, 4.2672; !- X,Y,Z Vertex 4 {m}

OS:ThermalZone,
  {8e610469-546e-43a3-933f-ace007a6e912}, !- Handle
  Zone EUn OfficeGeneral A end_a - Story Ground, !- Name
  1,                                      !- Multiplier
  ,                                       !- Ceiling Height {m}
  ,                                       !- Volume {m3}
  ,                                       !- Floor Area {m2}
  ,                                       !- Zone Inside Convection Algorithm
  ,                                       !- Zone Outside Convection Algorithm
  ,                                       !- Zone Conditioning Equipment List Name
  {400c7d45-6e8c-4191-8926-878abc56062c}, !- Zone Air Inlet Port List
  {75decd3d-4059-47d4-81fe-7c94e6ed6ad0}, !- Zone Air Exhaust Port List
  {b5955972-4f01-40dc-86ed-0975a26c3c46}, !- Zone Air Node Name
  {e94b1987-6529-4c94-bcdd-9a35e5f679aa}, !- Zone Return Air Port List
  ,                                       !- Primary Daylighting Control Name
  ,                                       !- Fraction of Zone Controlled by Primary Daylighting Control
  ,                                       !- Secondary Daylighting Control Name
  ,                                       !- Fraction of Zone Controlled by Secondary Daylighting Control
  ,                                       !- Illuminance Map Name
  ,                                       !- Group Rendering Name
  ,                                       !- Thermostat Name
  No;                                     !- Use Ideal Air Loads

OS:Node,
  {6a00134b-58b2-4101-8186-acf03b5e1c58}, !- Handle
  Node 1,                                 !- Name
  {b5955972-4f01-40dc-86ed-0975a26c3c46}, !- Inlet Port
  ;                                       !- Outlet Port

OS:Connection,
  {b5955972-4f01-40dc-86ed-0975a26c3c46}, !- Handle
  {7e32df28-fcb2-4f0b-9306-4b519863bf19}, !- Name
  {8e610469-546e-43a3-933f-ace007a6e912}, !- Source Object
  11,                                     !- Outlet Port
  {6a00134b-58b2-4101-8186-acf03b5e1c58}, !- Target Object
  2;                                      !- Inlet Port

OS:PortList,
  {400c7d45-6e8c-4191-8926-878abc56062c}, !- Handle
  {8cd8f3d3-f0fc-4d63-8cc4-f81057e72190}, !- Name
  {8e610469-546e-43a3-933f-ace007a6e912}; !- HVAC Component

OS:PortList,
  {75decd3d-4059-47d4-81fe-7c94e6ed6ad0}, !- Handle
  {9dd26290-1adf-4e46-b3c5-9a96c82ebda1}, !- Name
  {8e610469-546e-43a3-933f-ace007a6e912}; !- HVAC Component

OS:PortList,
  {e94b1987-6529-4c94-bcdd-9a35e5f679aa}, !- Handle
  {32f6b579-56e2-485b-8a99-f594b99638cf}, !- Name
  {8e610469-546e-43a3-933f-ace007a6e912}; !- HVAC Component

OS:Sizing:Zone,
  {a9cac46c-99f5-4b40-9511-66991d982e16}, !- Handle
  {8e610469-546e-43a3-933f-ace007a6e912}, !- Zone or ZoneList Name
  SupplyAirTemperature,                   !- Zone Cooling Design Supply Air Temperature Input Method
  14,                                     !- Zone Cooling Design Supply Air Temperature {C}
  11.11,                                  !- Zone Cooling Design Supply Air Temperature Difference {deltaC}
  SupplyAirTemperature,                   !- Zone Heating Design Supply Air Temperature Input Method
  40,                                     !- Zone Heating Design Supply Air Temperature {C}
  11.11,                                  !- Zone Heating Design Supply Air Temperature Difference {deltaC}
  0.0085,                                 !- Zone Cooling Design Supply Air Humidity Ratio {kg-H2O/kg-air}
  0.008,                                  !- Zone Heating Design Supply Air Humidity Ratio {kg-H2O/kg-air}
  ,                                       !- Zone Heating Sizing Factor
  ,                                       !- Zone Cooling Sizing Factor
  DesignDay,                              !- Cooling Design Air Flow Method
  ,                                       !- Cooling Design Air Flow Rate {m3/s}
  ,                                       !- Cooling Minimum Air Flow per Zone Floor Area {m3/s-m2}
  ,                                       !- Cooling Minimum Air Flow {m3/s}
  ,                                       !- Cooling Minimum Air Flow Fraction
  DesignDay,                              !- Heating Design Air Flow Method
  ,                                       !- Heating Design Air Flow Rate {m3/s}
  ,                                       !- Heating Maximum Air Flow per Zone Floor Area {m3/s-m2}
  ,                                       !- Heating Maximum Air Flow {m3/s}
  ,                                       !- Heating Maximum Air Flow Fraction
  ,                                       !- Design Zone Air Distribution Effectiveness in Cooling Mode
  ,                                       !- Design Zone Air Distribution Effectiveness in Heating Mode
  No,                                     !- Account for Dedicated Outdoor Air System
  NeutralSupplyAir,                       !- Dedicated Outdoor Air System Control Strategy
  autosize,                               !- Dedicated Outdoor Air Low Setpoint Temperature for Design {C}
  autosize;                               !- Dedicated Outdoor Air High Setpoint Temperature for Design {C}

OS:ZoneHVAC:EquipmentList,
  {6e1998b7-f14c-481c-8e7c-a140fcc82eef}, !- Handle
  Zone HVAC Equipment List 1,             !- Name
  {8e610469-546e-43a3-933f-ace007a6e912}; !- Thermal Zone

OS:Space,
  {3e9fdb5b-535a-4beb-aa78-51d749ff6fb9}, !- Handle
  EUn OfficeGeneral B end_a - Story Ground, !- Name
  {55988d8d-09ed-4887-939c-f0858e6b4df8}, !- Space Type Name
  ,                                       !- Default Construction Set Name
  ,                                       !- Default Schedule Set Name
  -0,                                     !- Direction of Relative North {deg}
  -56.7888562589528,                      !- X Origin {m}
  -18.1435425035811,                      !- Y Origin {m}
  0,                                      !- Z Origin {m}
  {4955a3a6-048e-4134-8130-619182e581d7}, !- Building Story Name
  {ff210818-2003-43d4-818c-a11a6422c1fc}; !- Thermal Zone Name

OS:Surface,
  {0fe41316-1f3d-43c2-907e-e7a7787ca90b}, !- Handle
  Surface 7,                              !- Name
  Floor,                                  !- Surface Type
  ,                                       !- Construction Name
  {3e9fdb5b-535a-4beb-aa78-51d749ff6fb9}, !- Space Name
  Ground,                                 !- Outside Boundary Condition
  ,                                       !- Outside Boundary Condition Object
  NoSun,                                  !- Sun Exposure
  NoWind,                                 !- Wind Exposure
  ,                                       !- View Factor to Ground
  ,                                       !- Number of Vertices
  -2.8421709430404e-014, 1.4210854715202e-014, 0, !- X,Y,Z Vertex 1 {m}
  -2.8421709430404e-014, 36.2870850071622, 0, !- X,Y,Z Vertex 2 {m}
  4.57199999999997, 36.2870850071622, 0,  !- X,Y,Z Vertex 3 {m}
  4.57199999999997, 1.4210854715202e-014, 0; !- X,Y,Z Vertex 4 {m}

OS:Surface,
  {7af45113-6d85-4c21-b46c-ff5db2baa6a7}, !- Handle
  Surface 8,                              !- Name
  Wall,                                   !- Surface Type
  ,                                       !- Construction Name
  {3e9fdb5b-535a-4beb-aa78-51d749ff6fb9}, !- Space Name
  Outdoors,                               !- Outside Boundary Condition
  ,                                       !- Outside Boundary Condition Object
  SunExposed,                             !- Sun Exposure
  WindExposed,                            !- Wind Exposure
  ,                                       !- View Factor to Ground
  ,                                       !- Number of Vertices
  -2.8421709430404e-014, 36.2870850071622, 4.2672, !- X,Y,Z Vertex 1 {m}
  -2.8421709430404e-014, 36.2870850071622, 0, !- X,Y,Z Vertex 2 {m}
  -2.8421709430404e-014, 1.4210854715202e-014, 0, !- X,Y,Z Vertex 3 {m}
  -2.8421709430404e-014, 1.4210854715202e-014, 4.2672; !- X,Y,Z Vertex 4 {m}

OS:Surface,
  {560bc7b8-7f16-4b13-9f1d-575f09d7929f}, !- Handle
  Surface 9,                              !- Name
  Wall,                                   !- Surface Type
  ,                                       !- Construction Name
  {3e9fdb5b-535a-4beb-aa78-51d749ff6fb9}, !- Space Name
  Surface,                                !- Outside Boundary Condition
  {4d352964-da99-45ec-9497-b1cbf04f6d6d}, !- Outside Boundary Condition Object
  NoSun,                                  !- Sun Exposure
  NoWind,                                 !- Wind Exposure
  ,                                       !- View Factor to Ground
  ,                                       !- Number of Vertices
  4.57199999999997, 36.2870850071622, 4.2672, !- X,Y,Z Vertex 1 {m}
  4.57199999999997, 36.2870850071622, 0,  !- X,Y,Z Vertex 2 {m}
  -2.8421709430404e-014, 36.2870850071622, 0, !- X,Y,Z Vertex 3 {m}
  -2.8421709430404e-014, 36.2870850071622, 4.2672; !- X,Y,Z Vertex 4 {m}

OS:Surface,
  {03103540-ad3b-4496-8c04-c42a5abc5abb}, !- Handle
  Surface 10,                             !- Name
  Wall,                                   !- Surface Type
  ,                                       !- Construction Name
  {3e9fdb5b-535a-4beb-aa78-51d749ff6fb9}, !- Space Name
  Surface,                                !- Outside Boundary Condition
  {ed725643-f475-4b55-b071-c27b123b7d51}, !- Outside Boundary Condition Object
  NoSun,                                  !- Sun Exposure
  NoWind,                                 !- Wind Exposure
  ,                                       !- View Factor to Ground
  ,                                       !- Number of Vertices
  4.57199999999997, 1.4210854715202e-014, 4.2672, !- X,Y,Z Vertex 1 {m}
  4.57199999999997, 1.4210854715202e-014, 0, !- X,Y,Z Vertex 2 {m}
  4.57199999999997, 36.2870850071622, 0,  !- X,Y,Z Vertex 3 {m}
  4.57199999999997, 36.2870850071622, 4.2672; !- X,Y,Z Vertex 4 {m}

OS:Surface,
  {fc5ec753-dc22-4c42-b828-cc9f9abef8cb}, !- Handle
  Surface 11,                             !- Name
  Wall,                                   !- Surface Type
  ,                                       !- Construction Name
  {3e9fdb5b-535a-4beb-aa78-51d749ff6fb9}, !- Space Name
  Surface,                                !- Outside Boundary Condition
  {b7a2cf43-7b9f-4950-861a-3677d5be07e0}, !- Outside Boundary Condition Object
  NoSun,                                  !- Sun Exposure
  NoWind,                                 !- Wind Exposure
  ,                                       !- View Factor to Ground
  ,                                       !- Number of Vertices
  -2.8421709430404e-014, 1.4210854715202e-014, 4.2672, !- X,Y,Z Vertex 1 {m}
  -2.8421709430404e-014, 1.4210854715202e-014, 0, !- X,Y,Z Vertex 2 {m}
  4.57199999999997, 1.4210854715202e-014, 0, !- X,Y,Z Vertex 3 {m}
  4.57199999999997, 1.4210854715202e-014, 4.2672; !- X,Y,Z Vertex 4 {m}

OS:Surface,
  {2569523d-44a9-4eeb-a8bb-1ee997a7e329}, !- Handle
  Surface 12,                             !- Name
  RoofCeiling,                            !- Surface Type
  ,                                       !- Construction Name
  {3e9fdb5b-535a-4beb-aa78-51d749ff6fb9}, !- Space Name
  Adiabatic,                              !- Outside Boundary Condition
  ,                                       !- Outside Boundary Condition Object
  NoSun,                                  !- Sun Exposure
  NoWind,                                 !- Wind Exposure
  ,                                       !- View Factor to Ground
  ,                                       !- Number of Vertices
  4.57199999999997, 1.4210854715202e-014, 4.2672, !- X,Y,Z Vertex 1 {m}
  4.57199999999997, 36.2870850071622, 4.2672, !- X,Y,Z Vertex 2 {m}
  -2.8421709430404e-014, 36.2870850071622, 4.2672, !- X,Y,Z Vertex 3 {m}
  -2.8421709430404e-014, 1.4210854715202e-014, 4.2672; !- X,Y,Z Vertex 4 {m}

OS:ThermalZone,
  {ff210818-2003-43d4-818c-a11a6422c1fc}, !- Handle
  Zone EUn OfficeGeneral B end_a - Story Ground, !- Name
  1,                                      !- Multiplier
  ,                                       !- Ceiling Height {m}
  ,                                       !- Volume {m3}
  ,                                       !- Floor Area {m2}
  ,                                       !- Zone Inside Convection Algorithm
  ,                                       !- Zone Outside Convection Algorithm
  ,                                       !- Zone Conditioning Equipment List Name
  {6e61100a-4921-41a1-8be0-d66e9a1591fe}, !- Zone Air Inlet Port List
  {b384fdc0-60e6-4adc-a6b4-e07531fc41d3}, !- Zone Air Exhaust Port List
  {3725a331-4a4b-42c6-ab3f-a53989855fcf}, !- Zone Air Node Name
  {9a7cbed4-73e3-4495-9baa-48ebcf6aa9ca}, !- Zone Return Air Port List
  ,                                       !- Primary Daylighting Control Name
  ,                                       !- Fraction of Zone Controlled by Primary Daylighting Control
  ,                                       !- Secondary Daylighting Control Name
  ,                                       !- Fraction of Zone Controlled by Secondary Daylighting Control
  ,                                       !- Illuminance Map Name
  ,                                       !- Group Rendering Name
  ,                                       !- Thermostat Name
  No;                                     !- Use Ideal Air Loads

OS:Node,
  {6a39622a-011e-4c80-923e-1d91b32b60f2}, !- Handle
  Node 2,                                 !- Name
  {3725a331-4a4b-42c6-ab3f-a53989855fcf}, !- Inlet Port
  ;                                       !- Outlet Port

OS:Connection,
  {3725a331-4a4b-42c6-ab3f-a53989855fcf}, !- Handle
  {87b648f7-2168-4457-a2ba-be4b761a3128}, !- Name
  {ff210818-2003-43d4-818c-a11a6422c1fc}, !- Source Object
  11,                                     !- Outlet Port
  {6a39622a-011e-4c80-923e-1d91b32b60f2}, !- Target Object
  2;                                      !- Inlet Port

OS:PortList,
  {6e61100a-4921-41a1-8be0-d66e9a1591fe}, !- Handle
  {ec668381-68fd-4119-97f4-3d85d338658e}, !- Name
  {ff210818-2003-43d4-818c-a11a6422c1fc}; !- HVAC Component

OS:PortList,
  {b384fdc0-60e6-4adc-a6b4-e07531fc41d3}, !- Handle
  {e8eb4045-8d8e-45fe-9821-d8b544febd13}, !- Name
  {ff210818-2003-43d4-818c-a11a6422c1fc}; !- HVAC Component

OS:PortList,
  {9a7cbed4-73e3-4495-9baa-48ebcf6aa9ca}, !- Handle
  {ac5daa96-6833-47bb-bf60-941b647f353b}, !- Name
  {ff210818-2003-43d4-818c-a11a6422c1fc}; !- HVAC Component

OS:Sizing:Zone,
  {5e18776c-c6fe-420b-998a-81153085ba31}, !- Handle
  {ff210818-2003-43d4-818c-a11a6422c1fc}, !- Zone or ZoneList Name
  SupplyAirTemperature,                   !- Zone Cooling Design Supply Air Temperature Input Method
  14,                                     !- Zone Cooling Design Supply Air Temperature {C}
  11.11,                                  !- Zone Cooling Design Supply Air Temperature Difference {deltaC}
  SupplyAirTemperature,                   !- Zone Heating Design Supply Air Temperature Input Method
  40,                                     !- Zone Heating Design Supply Air Temperature {C}
  11.11,                                  !- Zone Heating Design Supply Air Temperature Difference {deltaC}
  0.0085,                                 !- Zone Cooling Design Supply Air Humidity Ratio {kg-H2O/kg-air}
  0.008,                                  !- Zone Heating Design Supply Air Humidity Ratio {kg-H2O/kg-air}
  ,                                       !- Zone Heating Sizing Factor
  ,                                       !- Zone Cooling Sizing Factor
  DesignDay,                              !- Cooling Design Air Flow Method
  ,                                       !- Cooling Design Air Flow Rate {m3/s}
  ,                                       !- Cooling Minimum Air Flow per Zone Floor Area {m3/s-m2}
  ,                                       !- Cooling Minimum Air Flow {m3/s}
  ,                                       !- Cooling Minimum Air Flow Fraction
  DesignDay,                              !- Heating Design Air Flow Method
  ,                                       !- Heating Design Air Flow Rate {m3/s}
  ,                                       !- Heating Maximum Air Flow per Zone Floor Area {m3/s-m2}
  ,                                       !- Heating Maximum Air Flow {m3/s}
  ,                                       !- Heating Maximum Air Flow Fraction
  ,                                       !- Design Zone Air Distribution Effectiveness in Cooling Mode
  ,                                       !- Design Zone Air Distribution Effectiveness in Heating Mode
  No,                                     !- Account for Dedicated Outdoor Air System
  NeutralSupplyAir,                       !- Dedicated Outdoor Air System Control Strategy
  autosize,                               !- Dedicated Outdoor Air Low Setpoint Temperature for Design {C}