
OS:Version,
  {ea6c198d-e411-45e7-bfe4-7576b978b70d}, !- Handle
  2.7.0;                                  !- Version Identifier

OS:Material,
  {a11c9548-e569-4e4f-a1ab-f749cf4ccb29}, !- Handle
  Concrete- Aerated: 200 [mm],            !- Name
  MediumRough,                            !- Roughness
  0.2,                                    !- Thickness {m}
  0.117,                                  !- Conductivity {W/m-K}
  580,                                    !- Density {kg/m3}
  840;                                    !- Specific Heat {J/kg-K}

OS:Material,
  {e81c9217-c5f0-4c8f-a0c0-77b4621aa4d7}, !- Handle
  Rock Wool: 70 [mm],                     !- Name
  MediumRough,                            !- Roughness
  0.07,                                   !- Thickness {m}
  0.042,                                  !- Conductivity {W/m-K}
  200,                                    !- Density {kg/m3}
  710;                                    !- Specific Heat {J/kg-K}

OS:Material,
  {2405f1a1-6075-45ad-afe1-c44e2d2148d0}, !- Handle
  Ceramic Tile: 20 [mm],                  !- Name
  MediumRough,                            !- Roughness
  0.02,                                   !- Thickness {m}
  1.2,                                    !- Conductivity {W/m-K}
  2000,                                   !- Density {kg/m3}
  850;                                    !- Specific Heat {J/kg-K}

OS:Material,
  {919246ae-b473-4573-933b-f2ac1e92c6e4}, !- Handle
  Concrete: 200 [mm],                     !- Name
  MediumRough,                            !- Roughness
  0.2,                                    !- Thickness {m}
  1.046,                                  !- Conductivity {W/m-K}
  2300,                                   !- Density {kg/m3}
  657;                                    !- Specific Heat {J/kg-K}

OS:Material,
  {b6643d05-99d0-461b-b728-1e0cf1040cfb}, !- Handle
  EIFS- Exterior Insulation: 50 [mm],     !- Name
  MediumRough,                            !- Roughness
  0.05,                                   !- Thickness {m}
  0.023,                                  !- Conductivity {W/m-K}
  24,                                     !- Density {kg/m3}
  1590;                                   !- Specific Heat {J/kg-K}

OS:Material,
  {d81f20b6-e921-42d6-ab13-0c4ebdc482e3}, !- Handle
  Rock Wool: 150 [mm],                    !- Name
  MediumRough,                            !- Roughness
  0.15,                                   !- Thickness {m}
  0.042,                                  !- Conductivity {W/m-K}
  200,                                    !- Density {kg/m3}
  710;                                    !- Specific Heat {J/kg-K}

OS:Material,
  {73a1fdfa-0784-46e6-ba3d-21f3be534894}, !- Handle
  Plaster: 10 [mm],                       !- Name
  MediumRough,                            !- Roughness
  0.01,                                   !- Thickness {m}
  0.51,                                   !- Conductivity {W/m-K}
  1120,                                   !- Density {kg/m3}
  960;                                    !- Specific Heat {J/kg-K}

OS:Material,
  {3fc8503c-8dcf-4e09-9d75-81a6ae69538d}, !- Handle
  Concrete- Aerated: 100 [mm],            !- Name
  MediumRough,                            !- Roughness
  0.1,                                    !- Thickness {m}
  0.117,                                  !- Conductivity {W/m-K}
  580,                                    !- Density {kg/m3}
  840;                                    !- Specific Heat {J/kg-K}

OS:Material,
  {881af2dd-f282-4278-af80-92428bc7a08a}, !- Handle
  {4fd11abf-7e72-49bc-bf3d-d2b8991a3ce7}, !- Name
  MediumRough,                            !- Roughness
  0.01,                                   !- Thickness {m}
  0.51,                                   !- Conductivity {W/m-K}
  1120,                                   !- Density {kg/m3}
  960;                                    !- Specific Heat {J/kg-K}

OS:Material,
  {4d9734ac-433c-46b2-80bd-aaecf4ebc295}, !- Handle
  {4add001d-0b5d-4af3-bfcc-ea71aa6c3057}, !- Name
  MediumRough,                            !- Roughness
  0.02,                                   !- Thickness {m}
  1.2,                                    !- Conductivity {W/m-K}
  2000,                                   !- Density {kg/m3}
  850;                                    !- Specific Heat {J/kg-K}

OS:Material,
  {5d346fff-a6c5-44f5-b0eb-32b01a19030c}, !- Handle
  {6a585513-038e-459c-a74e-7a1fe29c571e}, !- Name
  MediumRough,                            !- Roughness
  0.2,                                    !- Thickness {m}
  1.046,                                  !- Conductivity {W/m-K}
  2300,                                   !- Density {kg/m3}
  657;                                    !- Specific Heat {J/kg-K}

OS:Material,
  {6d3b0020-e71f-4d13-8d1b-10c953caffdc}, !- Handle
  {1517b90c-90bf-4ad5-84cb-ad873f5aadb0}, !- Name
  MediumRough,                            !- Roughness
  0.01,                                   !- Thickness {m}
  0.51,                                   !- Conductivity {W/m-K}
  1120,                                   !- Density {kg/m3}
  960;                                    !- Specific Heat {J/kg-K}

OS:Construction,
  {a4239bb8-c5c6-48fd-aa54-24d4c62f0626}, !- Handle
  Basic Wall: Generic - 300mm,            !- Name
  ,                                       !- Surface Rendering Name
  {a11c9548-e569-4e4f-a1ab-f749cf4ccb29}, !- Layer 1
  {e81c9217-c5f0-4c8f-a0c0-77b4621aa4d7}; !- Layer 2

OS:Construction,
  {37e25b39-519f-44b3-9828-3084d6983d1f}, !- Handle
  Floor: Generic 300mm,                   !- Name
  ,                                       !- Surface Rendering Name
  {2405f1a1-6075-45ad-afe1-c44e2d2148d0}, !- Layer 1
  {919246ae-b473-4573-933b-f2ac1e92c6e4}, !- Layer 2
  {b6643d05-99d0-461b-b728-1e0cf1040cfb}; !- Layer 3

OS:Construction,
  {2f6bf197-6b26-422d-a161-472b55f38da2}, !- Handle
  Basic Roof: Generic - 150mm,            !- Name
  ,                                       !- Surface Rendering Name
  {d81f20b6-e921-42d6-ab13-0c4ebdc482e3}; !- Layer 1

OS:Construction,
  {1527234f-2a34-4748-8f27-55995b3c347d}, !- Handle
  Basic Wall: Interior - 100mm,           !- Name
  ,                                       !- Surface Rendering Name
  {73a1fdfa-0784-46e6-ba3d-21f3be534894}, !- Layer 1
  {3fc8503c-8dcf-4e09-9d75-81a6ae69538d}, !- Layer 2
  {881af2dd-f282-4278-af80-92428bc7a08a}; !- Layer 3

OS:Construction,
  {56f705db-de5f-443a-b3ae-0ba5d3edfca6}, !- Handle
  Floor: Interior 300mm,                  !- Name
  ,                                       !- Surface Rendering Name
  {4d9734ac-433c-46b2-80bd-aaecf4ebc295}, !- Layer 1
  {5d346fff-a6c5-44f5-b0eb-32b01a19030c}, !- Layer 2
  {6d3b0020-e71f-4d13-8d1b-10c953caffdc}; !- Layer 3

OS:Construction,
  {8babe82b-ecd6-4617-996c-a75f629193d8}, !- Handle
  Double glazing - 1/4 in thick - low-E/clear (e = 0.2) glass, !- Name
  ,                                       !- Surface Rendering Name
  {257a60d8-bf18-463c-b0ce-d4fbb8e92063}; !- Layer 1

OS:WindowMaterial:SimpleGlazingSystem,
  {257a60d8-bf18-463c-b0ce-d4fbb8e92063}, !- Handle
  {86f334eb-d0e7-4f93-b91b-f564159f7817}, !- Name
  1.9873,                                 !- U-Factor {W/m2-K}
  0.6,                                    !- Solar Heat Gain Coefficient
  0.73;                                   !- Visible Transmittance

OS:Construction,
  {8b325ec6-2d57-42b2-be5e-e0fb52a018db}, !- Handle
  Double glazing - domestic SC=0.7,       !- Name
  ,                                       !- Surface Rendering Name
  {4a56699e-6868-4e0b-9118-2cd6dad4acf3}; !- Layer 1

OS:WindowMaterial:SimpleGlazingSystem,
  {4a56699e-6868-4e0b-9118-2cd6dad4acf3}, !- Handle
  {4bbd5c0d-837b-4041-8c84-b96db7540272}, !- Name
  2.8567,                                 !- U-Factor {W/m2-K}
  0.7,                                    !- Solar Heat Gain Coefficient
  0.78;                                   !- Visible Transmittance

OS:Schedule:Year,
  {2eb868af-ccac-41c2-a817-7c9e6a367f02}, !- Handle
  On - 24 Hours,                          !- Name
  {76331272-ef0e-4e93-97e2-7d6ad7dd2b3a}, !- Schedule Type Limits Name
  12,                                     !- Month 1
  31,                                     !- Day 1
  {7eece4ab-9dd1-4b49-bca0-d4723d2a8c73}; !- Week Schedule Until Date 1

OS:ScheduleTypeLimits,
  {76331272-ef0e-4e93-97e2-7d6ad7dd2b3a}, !- Handle
  Fraction,                               !- Name
  ,                                       !- Lower Limit Value
  ,                                       !- Upper Limit Value
  ,                                       !- Numeric Type
  Dimensionless;                          !- Unit Type

OS:YearDescription,
  {46fa3b5c-0e9b-4ece-ba1c-11ec18212c03}, !- Handle
  ,                                       !- Calendar Year
  Sunday,                                 !- Day of Week for Start Day
  ;                                       !- Is Leap Year

OS:Schedule:Week,
  {7eece4ab-9dd1-4b49-bca0-d4723d2a8c73}, !- Handle
  wk-schdl-1,                             !- Name
  ,                                       !- Schedule Rendering Name
  {1f703abd-d067-45ad-b274-09acc80685eb}, !- Sunday Schedule:Day Name
  {1f703abd-d067-45ad-b274-09acc80685eb}, !- Monday Schedule:Day Name
  {1f703abd-d067-45ad-b274-09acc80685eb}, !- Tuesday Schedule:Day Name
  {1f703abd-d067-45ad-b274-09acc80685eb}, !- Wednesday Schedule:Day Name
  {1f703abd-d067-45ad-b274-09acc80685eb}, !- Thursday Schedule:Day Name
  {1f703abd-d067-45ad-b274-09acc80685eb}, !- Friday Schedule:Day Name
  {1f703abd-d067-45ad-b274-09acc80685eb}, !- Saturday Schedule:Day Name
  {1f703abd-d067-45ad-b274-09acc80685eb}, !- Holiday Schedule:Day Name
  {1f703abd-d067-45ad-b274-09acc80685eb}, !- SummerDesignDay Schedule:Day Name
  {1f703abd-d067-45ad-b274-09acc80685eb}, !- WinterDesignDay Schedule:Day Name
  {1f703abd-d067-45ad-b274-09acc80685eb}, !- CustomDay1 Schedule:Day Name
  {1f703abd-d067-45ad-b274-09acc80685eb}; !- CustomDay2 Schedule:Day Name

OS:Schedule:Day,
  {1f703abd-d067-45ad-b274-09acc80685eb}, !- Handle
  dy-schdl-1,                             !- Name
  {76331272-ef0e-4e93-97e2-7d6ad7dd2b3a}, !- Schedule Type Limits Name
  ,                                       !- Interpolate to Timestep
  1,                                      !- Hour 1
  0,                                      !- Minute 1
  1,                                      !- Value Until Time 1
  2,                                      !- Hour 2
  0,                                      !- Minute 2
  1,                                      !- Value Until Time 2
  3,                                      !- Hour 3
  0,                                      !- Minute 3
  1,                                      !- Value Until Time 3
  4,                                      !- Hour 4
  0,                                      !- Minute 4
  1,                                      !- Value Until Time 4
  5,                                      !- Hour 5
  0,                                      !- Minute 5
  1,                                      !- Value Until Time 5
  6,                                      !- Hour 6
  0,                                      !- Minute 6
  1,                                      !- Value Until Time 6
  7,                                      !- Hour 7
  0,                                      !- Minute 7
  1,                                      !- Value Until Time 7
  8,                                      !- Hour 8
  0,                                      !- Minute 8
  1,                                      !- Value Until Time 8
  9,                                      !- Hour 9
  0,                                      !- Minute 9
  1,                                      !- Value Until Time 9
  10,                                     !- Hour 10
  0,                                      !- Minute 10
  1,                                      !- Value Until Time 10
  11,                                     !- Hour 11
  0,                                      !- Minute 11
  1,                                      !- Value Until Time 11
  12,                                     !- Hour 12
  0,                                      !- Minute 12
  1,                                      !- Value Until Time 12
  13,                                     !- Hour 13
  0,                                      !- Minute 13
  1,                                      !- Value Until Time 13
  14,                                     !- Hour 14
  0,                                      !- Minute 14
  1,                                      !- Value Until Time 14
  15,                                     !- Hour 15
  0,                                      !- Minute 15
  1,                                      !- Value Until Time 15
  16,                                     !- Hour 16
  0,                                      !- Minute 16
  1,                                      !- Value Until Time 16
  17,                                     !- Hour 17
  0,                                      !- Minute 17
  1,                                      !- Value Until Time 17
  18,                                     !- Hour 18
  0,                                      !- Minute 18
  1,                                      !- Value Until Time 18
  19,                                     !- Hour 19
  0,                                      !- Minute 19
  1,                                      !- Value Until Time 19
  20,                                     !- Hour 20
  0,                                      !- Minute 20
  1,                                      !- Value Until Time 20
  21,                                     !- Hour 21
  0,                                      !- Minute 21
  1,                                      !- Value Until Time 21
  22,                                     !- Hour 22
  0,                                      !- Minute 22
  1,                                      !- Value Until Time 22
  23,                                     !- Hour 23
  0,                                      !- Minute 23
  1,                                      !- Value Until Time 23
  24,                                     !- Hour 24
  0,                                      !- Minute 24
  1;                                      !- Value Until Time 24

OS:Schedule:Year,
  {71fa94fc-fbb6-4f8b-a7ba-1163b51ae744}, !- Handle
  On - 6 AM to 10 PM,                     !- Name
  {76331272-ef0e-4e93-97e2-7d6ad7dd2b3a}, !- Schedule Type Limits Name
  12,                                     !- Month 1
  31,                                     !- Day 1
  {55872703-2dfd-41b9-91a1-3afd67272e37}; !- Week Schedule Until Date 1

OS:Schedule:Week,
  {55872703-2dfd-41b9-91a1-3afd67272e37}, !- Handle
  wk-schdl-2,                             !- Name
  ,                                       !- Schedule Rendering Name
  {3bc770a7-c159-4f8f-9c1a-53f62a9c8fb8}, !- Sunday Schedule:Day Name
  {3bc770a7-c159-4f8f-9c1a-53f62a9c8fb8}, !- Monday Schedule:Day Name
  {3bc770a7-c159-4f8f-9c1a-53f62a9c8fb8}, !- Tuesday Schedule:Day Name
  {3bc770a7-c159-4f8f-9c1a-53f62a9c8fb8}, !- Wednesday Schedule:Day Name
  {3bc770a7-c159-4f8f-9c1a-53f62a9c8fb8}, !- Thursday Schedule:Day Name
  {3bc770a7-c159-4f8f-9c1a-53f62a9c8fb8}, !- Friday Schedule:Day Name
  {3bc770a7-c159-4f8f-9c1a-53f62a9c8fb8}, !- Saturday Schedule:Day Name
  {3bc770a7-c159-4f8f-9c1a-53f62a9c8fb8}, !- Holiday Schedule:Day Name
  {3bc770a7-c159-4f8f-9c1a-53f62a9c8fb8}, !- SummerDesignDay Schedule:Day Name
  {3bc770a7-c159-4f8f-9c1a-53f62a9c8fb8}, !- WinterDesignDay Schedule:Day Name
  {3bc770a7-c159-4f8f-9c1a-53f62a9c8fb8}, !- CustomDay1 Schedule:Day Name
  {3bc770a7-c159-4f8f-9c1a-53f62a9c8fb8}; !- CustomDay2 Schedule:Day Name

OS:Schedule:Day,
  {3bc770a7-c159-4f8f-9c1a-53f62a9c8fb8}, !- Handle
  dy-schdl-2,                             !- Name
  {76331272-ef0e-4e93-97e2-7d6ad7dd2b3a}, !- Schedule Type Limits Name
  ,                                       !- Interpolate to Timestep
  1,                                      !- Hour 1
  0,                                      !- Minute 1
  0,                                      !- Value Until Time 1
  2,                                      !- Hour 2
  0,                                      !- Minute 2
  0,                                      !- Value Until Time 2
  3,                                      !- Hour 3
  0,                                      !- Minute 3
  0,                                      !- Value Until Time 3
  4,                                      !- Hour 4
  0,                                      !- Minute 4
  0,                                      !- Value Until Time 4
  5,                                      !- Hour 5
  0,                                      !- Minute 5
  0,                                      !- Value Until Time 5
  6,                                      !- Hour 6
  0,                                      !- Minute 6
  0,                                      !- Value Until Time 6
  7,                                      !- Hour 7
  0,                                      !- Minute 7
  1,                                      !- Value Until Time 7
  8,                                      !- Hour 8
  0,                                      !- Minute 8
  1,                                      !- Value Until Time 8
  9,                                      !- Hour 9
  0,                                      !- Minute 9
  1,                                      !- Value Until Time 9
  10,                                     !- Hour 10
  0,                                      !- Minute 10
  1,                                      !- Value Until Time 10
  11,                                     !- Hour 11
  0,                                      !- Minute 11
  1,                                      !- Value Until Time 11
  12,                                     !- Hour 12
  0,                                      !- Minute 12
  1,                                      !- Value Until Time 12
  13,                                     !- Hour 13
  0,                                      !- Minute 13
  1,                                      !- Value Until Time 13
  14,                                     !- Hour 14
  0,                                      !- Minute 14
  1,                                      !- Value Until Time 14
  15,                                     !- Hour 15
  0,                                      !- Minute 15
  1,                                      !- Value Until Time 15
  16,                                     !- Hour 16
  0,                                      !- Minute 16
  1,                                      !- Value Until Time 16
  17,                                     !- Hour 17
  0,                                      !- Minute 17
  1,                                      !- Value Until Time 17
  18,                                     !- Hour 18
  0,                                      !- Minute 18
  1,                                      !- Value Until Time 18
  19,                                     !- Hour 19
  0,                                      !- Minute 19
  1,                                      !- Value Until Time 19
  20,                                     !- Hour 20
  0,                                      !- Minute 20
  1,                                      !- Value Until Time 20
  21,                                     !- Hour 21
  0,                                      !- Minute 21
  1,                                      !- Value Until Time 21
  22,                                     !- Hour 22
  0,                                      !- Minute 22
  1,                                      !- Value Until Time 22
  23,                                     !- Hour 23
  0,                                      !- Minute 23
  0,                                      !- Value Until Time 23
  24,                                     !- Hour 24
  0,                                      !- Minute 24
  0;                                      !- Value Until Time 24

OS:Schedule:Year,
  {109dadb4-06cf-4c5d-955a-3d8ace12b69c}, !- Handle
  Common Office Occupancy - 8 AM to 5 PM, !- Name
  {76331272-ef0e-4e93-97e2-7d6ad7dd2b3a}, !- Schedule Type Limits Name
  12,                                     !- Month 1
  31,                                     !- Day 1
  {7bb3fd71-9a96-425e-8612-79bd8626c247}; !- Week Schedule Until Date 1

OS:Schedule:Week,
  {7bb3fd71-9a96-425e-8612-79bd8626c247}, !- Handle
  wk-schdl-3,                             !- Name
  ,                                       !- Schedule Rendering Name
  {1cce027d-e3b7-4be8-9a0d-f2a2272ca42b}, !- Sunday Schedule:Day Name
  {1cce027d-e3b7-4be8-9a0d-f2a2272ca42b}, !- Monday Schedule:Day Name
  {1cce027d-e3b7-4be8-9a0d-f2a2272ca42b}, !- Tuesday Schedule:Day Name
  {1cce027d-e3b7-4be8-9a0d-f2a2272ca42b}, !- Wednesday Schedule:Day Name
  {1cce027d-e3b7-4be8-9a0d-f2a2272ca42b}, !- Thursday Schedule:Day Name
  {1cce027d-e3b7-4be8-9a0d-f2a2272ca42b}, !- Friday Schedule:Day Name
  {1cce027d-e3b7-4be8-9a0d-f2a2272ca42b}, !- Saturday Schedule:Day Name
  {1cce027d-e3b7-4be8-9a0d-f2a2272ca42b}, !- Holiday Schedule:Day Name
  {1cce027d-e3b7-4be8-9a0d-f2a2272ca42b}, !- SummerDesignDay Schedule:Day Name
  {1cce027d-e3b7-4be8-9a0d-f2a2272ca42b}, !- WinterDesignDay Schedule:Day Name
  {1cce027d-e3b7-4be8-9a0d-f2a2272ca42b}, !- CustomDay1 Schedule:Day Name
  {1cce027d-e3b7-4be8-9a0d-f2a2272ca42b}; !- CustomDay2 Schedule:Day Name

OS:Schedule:Day,
  {1cce027d-e3b7-4be8-9a0d-f2a2272ca42b}, !- Handle
  dy-schdl-3,                             !- Name
  {76331272-ef0e-4e93-97e2-7d6ad7dd2b3a}, !- Schedule Type Limits Name
  ,                                       !- Interpolate to Timestep
  1,                                      !- Hour 1
  0,                                      !- Minute 1
  0,                                      !- Value Until Time 1
  2,                                      !- Hour 2
  0,                                      !- Minute 2
  0,                                      !- Value Until Time 2
  3,                                      !- Hour 3
  0,                                      !- Minute 3
  0,                                      !- Value Until Time 3
  4,                                      !- Hour 4
  0,                                      !- Minute 4
  0,                                      !- Value Until Time 4
  5,                                      !- Hour 5
  0,                                      !- Minute 5
  0,                                      !- Value Until Time 5
  6,                                      !- Hour 6
  0,                                      !- Minute 6
  0,                                      !- Value Until Time 6
  7,                                      !- Hour 7
  0,                                      !- Minute 7
  0,                                      !- Value Until Time 7
  8,                                      !- Hour 8
  0,                                      !- Minute 8
  0.1,                                    !- Value Until Time 8
  9,                                      !- Hour 9
  0,                                      !- Minute 9
  0.2,                                    !- Value Until Time 9
  10,                                     !- Hour 10
  0,                                      !- Minute 10
  0.95,                                   !- Value Until Time 10
  11,                                     !- Hour 11
  0,                                      !- Minute 11
  0.95,                                   !- Value Until Time 11
  12,                                     !- Hour 12
  0,                                      !- Minute 12
  0.45,                                   !- Value Until Time 12
  13,                                     !- Hour 13
  0,                                      !- Minute 13
  0.45,                                   !- Value Until Time 13
  14,                                     !- Hour 14
  0,                                      !- Minute 14
  0.95,                                   !- Value Until Time 14
  15,                                     !- Hour 15
  0,                                      !- Minute 15
  0.95,                                   !- Value Until Time 15
  16,                                     !- Hour 16
  0,                                      !- Minute 16
  0.95,                                   !- Value Until Time 16
  17,                                     !- Hour 17
  0,                                      !- Minute 17
  0.95,                                   !- Value Until Time 17
  18,                                     !- Hour 18
  0,                                      !- Minute 18
  0.95,                                   !- Value Until Time 18
  19,                                     !- Hour 19
  0,                                      !- Minute 19
  0.3,                                    !- Value Until Time 19
  20,                                     !- Hour 20
  0,                                      !- Minute 20
  0.1,                                    !- Value Until Time 20
  21,                                     !- Hour 21
  0,                                      !- Minute 21
  0.1,                                    !- Value Until Time 21
  22,                                     !- Hour 22
  0,                                      !- Minute 22
  0.1,                                    !- Value Until Time 22
  23,                                     !- Hour 23
  0,                                      !- Minute 23
  0,                                      !- Value Until Time 23
  24,                                     !- Hour 24
  0,                                      !- Minute 24
  0;                                      !- Value Until Time 24

OS:Schedule:Year,
  {9d1a50a4-681e-4584-aa3c-b650ba1c18c2}, !- Handle
  Restaurant Occupancy - Lunch and Dinner, !- Name
  {76331272-ef0e-4e93-97e2-7d6ad7dd2b3a}, !- Schedule Type Limits Name
  12,                                     !- Month 1
  31,                                     !- Day 1
  {f9aa00a3-78c4-4c26-aaee-a3f8e781fd6d}; !- Week Schedule Until Date 1

OS:Schedule:Week,
  {f9aa00a3-78c4-4c26-aaee-a3f8e781fd6d}, !- Handle
  wk-schdl-4,                             !- Name
  ,                                       !- Schedule Rendering Name
  {e2ad7341-db34-4e9b-97af-1cf39914f140}, !- Sunday Schedule:Day Name
  {e2ad7341-db34-4e9b-97af-1cf39914f140}, !- Monday Schedule:Day Name
  {e2ad7341-db34-4e9b-97af-1cf39914f140}, !- Tuesday Schedule:Day Name
  {e2ad7341-db34-4e9b-97af-1cf39914f140}, !- Wednesday Schedule:Day Name
  {e2ad7341-db34-4e9b-97af-1cf39914f140}, !- Thursday Schedule:Day Name
  {e2ad7341-db34-4e9b-97af-1cf39914f140}, !- Friday Schedule:Day Name
  {e2ad7341-db34-4e9b-97af-1cf39914f140}, !- Saturday Schedule:Day Name
  {e2ad7341-db34-4e9b-97af-1cf39914f140}, !- Holiday Schedule:Day Name
  {e2ad7341-db34-4e9b-97af-1cf39914f140}, !- SummerDesignDay Schedule:Day Name
  {e2ad7341-db34-4e9b-97af-1cf39914f140}, !- WinterDesignDay Schedule:Day Name
  {e2ad7341-db34-4e9b-97af-1cf39914f140}, !- CustomDay1 Schedule:Day Name
  {e2ad7341-db34-4e9b-97af-1cf39914f140}; !- CustomDay2 Schedule:Day Name

OS:Schedule:Day,
  {e2ad7341-db34-4e9b-97af-1cf39914f140}, !- Handle
  dy-schdl-4,                             !- Name
  {76331272-ef0e-4e93-97e2-7d6ad7dd2b3a}, !- Schedule Type Limits Name
  ,                                       !- Interpolate to Timestep
  1,                                      !- Hour 1
  0,                                      !- Minute 1
  0.15,                                   !- Value Until Time 1
  2,                                      !- Hour 2
  0,                                      !- Minute 2
  0.15,                                   !- Value Until Time 2
  3,                                      !- Hour 3
  0,                                      !- Minute 3
  0.05,                                   !- Value Until Time 3
  4,                                      !- Hour 4
  0,                                      !- Minute 4
  0,                                      !- Value Until Time 4
  5,                                      !- Hour 5
  0,                                      !- Minute 5
  0,                                      !- Value Until Time 5
  6,                                      !- Hour 6
  0,                                      !- Minute 6
  0,                                      !- Value Until Time 6
  7,                                      !- Hour 7
  0,                                      !- Minute 7
  0,                                      !- Value Until Time 7
  8,                                      !- Hour 8
  0,                                      !- Minute 8
  0.05,                                   !- Value Until Time 8
  9,                                      !- Hour 9
  0,                                      !- Minute 9
  0.05,                                   !- Value Until Time 9
  10,                                     !- Hour 10
  0,                                      !- Minute 10
  0.05,                                   !- Value Until Time 10
  11,                                     !- Hour 11
  0,                                      !- Minute 11
  0.2,                                    !- Value Until Time 11
  12,                                     !- Hour 12
  0,                                      !- Minute 12
  0.5,                                    !- Value Until Time 12
  13,                                     !- Hour 13
  0,                                      !- Minute 13
  0.8,                                    !- Value Until Time 13