
OS:Version,
  {83c4d180-5417-4260-920a-5bf5ab363973}, !- Handle
  2.7.0;                                  !- Version Identifier

OS:SpaceType,
  {15ebd998-d96a-4dd6-a266-1f2f4fd203c9}, !- Handle
  Gro GrocSales,                          !- Name
  ,                                       !- Default Construction Set Name
  ,                                       !- Default Schedule Set Name
  ,                                       !- Group Rendering Name
  ,                                       !- Design Specification Outdoor Air Object Name
  ,                                       !- Standards Template
  Gro,                                    !- Standards Building Type
  GrocSales;                              !- Standards Space Type

OS:SpaceType,
  {b03dcbaf-3702-4e63-8b44-909f21a4794b}, !- Handle
  Gro RefWalkInCool,                      !- Name
  ,                                       !- Default Construction Set Name
  ,                                       !- Default Schedule Set Name
  ,                                       !- Group Rendering Name
  ,                                       !- Design Specification Outdoor Air Object Name
  ,                                       !- Standards Template
  Gro,                                    !- Standards Building Type
  RefWalkInCool;                          !- Standards Space Type

OS:SpaceType,
  {c213f8de-8983-450e-84bb-b2c6cbab9d45}, !- Handle
  Gro OfficeGeneral,                      !- Name
  ,                                       !- Default Construction Set Name
  ,                                       !- Default Schedule Set Name
  ,                                       !- Group Rendering Name
  ,                                       !- Design Specification Outdoor Air Object Name
  ,                                       !- Standards Template
  Gro,                                    !- Standards Building Type
  OfficeGeneral;                          !- Standards Space Type

OS:SpaceType,
  {8f6c29ae-960b-4499-a344-30b5eacc2909}, !- Handle
  Gro RefFoodPrep,                        !- Name
  ,                                       !- Default Construction Set Name
  ,                                       !- Default Schedule Set Name
  ,                                       !- Group Rendering Name
  ,                                       !- Design Specification Outdoor Air Object Name
  ,                                       !- Standards Template
  Gro,                                    !- Standards Building Type
  RefFoodPrep;                            !- Standards Space Type

OS:SpaceType,
  {271826ea-0cd5-4c7f-811e-d345edb0b483}, !- Handle
  Gro RefWalkInFreeze,                    !- Name
  ,                                       !- Default Construction Set Name
  ,                                       !- Default Schedule Set Name
  ,                                       !- Group Rendering Name
  ,                                       !- Design Specification Outdoor Air Object Name
  ,                                       !- Standards Template
  Gro,                                    !- Standards Building Type
  RefWalkInFreeze;                        !- Standards Space Type

OS:SpaceType,
  {7f85ef7e-85a6-47c2-9e0f-bc7cfda93752}, !- Handle
  Gro IndLoadDock,                        !- Name
  ,                                       !- Default Construction Set Name
  ,                                       !- Default Schedule Set Name
  ,                                       !- Group Rendering Name
  ,                                       !- Design Specification Outdoor Air Object Name
  ,                                       !- Standards Template
  Gro,                                    !- Standards Building Type
  IndLoadDock;                            !- Standards Space Type

OS:Building,
  {d073e5a0-dea2-4666-917f-c846df460e06}, !- Handle
  DEER Pre-1975|Gro,                      !- Name
  ,                                       !- Building Sector Type
  ,                                       !- North Axis {deg}
  ,                                       !- Nominal Floor to Floor Height {m}
  ,                                       !- Space Type Name
  ,                                       !- Default Construction Set Name
  ;                                       !- Default Schedule Set Name

OS:Site,
  {e79b55ed-11c4-4d74-abff-d198c35c493c}, !- Handle
  Site 1,                                 !- Name
  ,                                       !- Latitude {deg}
  ,                                       !- Longitude {deg}
  ,                                       !- Time Zone {hr}
  ,                                       !- Elevation {m}
  ;                                       !- Terrain

OS:BuildingStory,
  {cd0f1b0e-529d-4a0e-9649-b37782a9bc01}, !- Handle
  Story Ground,                           !- Name
  0,                                      !- Nominal Z Coordinate {m}
  7.62,                                   !- Nominal Floor to Floor Height {m}
  ,                                       !- Default Construction Set Name
  ,                                       !- Default Schedule Set Name
  ;                                       !- Group Rendering Name

OS:Space,
  {e2aa1824-ef9f-4f6b-b20a-373119159e22}, !- Handle
  Gro GrocSales A end_a - Story Ground,   !- Name
  {15ebd998-d96a-4dd6-a266-1f2f4fd203c9}, !- Space Type Name
  ,                                       !- Default Construction Set Name
  ,                                       !- Default Schedule Set Name
  -0,                                     !- Direction of Relative North {deg}
  -34.0766536314821,                      !- X Origin {m}
  -34.0766536314821,                      !- Y Origin {m}
  0,                                      !- Z Origin {m}
  {cd0f1b0e-529d-4a0e-9649-b37782a9bc01}, !- Building Story Name
  {5c0b28d5-a140-4769-90f5-173a8079165f}; !- Thermal Zone Name

OS:Surface,
  {f41eafcf-f954-48a9-a683-8f0aeb57d12e}, !- Handle
  Surface 1,                              !- Name
  Floor,                                  !- Surface Type
  ,                                       !- Construction Name
  {e2aa1824-ef9f-4f6b-b20a-373119159e22}, !- Space Name
  Ground,                                 !- Outside Boundary Condition
  ,                                       !- Outside Boundary Condition Object
  NoSun,                                  !- Sun Exposure
  NoWind,                                 !- Wind Exposure
  ,                                       !- View Factor to Ground
  ,                                       !- Number of Vertices
  -3.5527136788005e-014, -3.5527136788005e-014, 0, !- X,Y,Z Vertex 1 {m}
  -3.5527136788005e-014, 4.57199999999997, 0, !- X,Y,Z Vertex 2 {m}
  4.57199999999997, 4.57199999999997, 0,  !- X,Y,Z Vertex 3 {m}
  4.57199999999997, -3.5527136788005e-014, 0; !- X,Y,Z Vertex 4 {m}

OS:Surface,
  {85072a5d-ab64-4f82-ab9b-959a3722a908}, !- Handle
  Surface 2,                              !- Name
  Wall,                                   !- Surface Type
  ,                                       !- Construction Name
  {e2aa1824-ef9f-4f6b-b20a-373119159e22}, !- Space Name
  Outdoors,                               !- Outside Boundary Condition
  ,                                       !- Outside Boundary Condition Object
  SunExposed,                             !- Sun Exposure
  WindExposed,                            !- Wind Exposure
  ,                                       !- View Factor to Ground
  ,                                       !- Number of Vertices
  -3.5527136788005e-014, 4.57199999999997, 7.62, !- X,Y,Z Vertex 1 {m}
  -3.5527136788005e-014, 4.57199999999997, 0, !- X,Y,Z Vertex 2 {m}
  -3.5527136788005e-014, -3.5527136788005e-014, 0, !- X,Y,Z Vertex 3 {m}
  -3.5527136788005e-014, -3.5527136788005e-014, 7.62; !- X,Y,Z Vertex 4 {m}

OS:Surface,
  {e2ec0d89-0f2a-49ac-9db8-83d9d3e61230}, !- Handle
  Surface 3,                              !- Name
  Wall,                                   !- Surface Type
  ,                                       !- Construction Name
  {e2aa1824-ef9f-4f6b-b20a-373119159e22}, !- Space Name
  Surface,                                !- Outside Boundary Condition
  {6d3b3ce3-88a1-4ec4-9334-70d6cd83a184}, !- Outside Boundary Condition Object
  NoSun,                                  !- Sun Exposure
  NoWind,                                 !- Wind Exposure
  ,                                       !- View Factor to Ground
  ,                                       !- Number of Vertices
  4.57199999999997, 4.57199999999997, 7.62, !- X,Y,Z Vertex 1 {m}
  4.57199999999997, 4.57199999999997, 0,  !- X,Y,Z Vertex 2 {m}
  -3.5527136788005e-014, 4.57199999999997, 0, !- X,Y,Z Vertex 3 {m}
  -3.5527136788005e-014, 4.57199999999997, 7.62; !- X,Y,Z Vertex 4 {m}

OS:Surface,
  {79f4783b-7691-4769-b2b5-5328eb7e5479}, !- Handle
  Surface 4,                              !- Name
  Wall,                                   !- Surface Type
  ,                                       !- Construction Name
  {e2aa1824-ef9f-4f6b-b20a-373119159e22}, !- Space Name
  Surface,                                !- Outside Boundary Condition
  {19337073-81c4-4bfd-b1cd-8d6af5a6fbd2}, !- Outside Boundary Condition Object
  NoSun,                                  !- Sun Exposure
  NoWind,                                 !- Wind Exposure
  ,                                       !- View Factor to Ground
  ,                                       !- Number of Vertices
  4.57199999999997, -3.5527136788005e-014, 7.62, !- X,Y,Z Vertex 1 {m}
  4.57199999999997, -3.5527136788005e-014, 0, !- X,Y,Z Vertex 2 {m}
  4.57199999999997, 4.57199999999997, 0,  !- X,Y,Z Vertex 3 {m}
  4.57199999999997, 4.57199999999997, 7.62; !- X,Y,Z Vertex 4 {m}

OS:Surface,
  {018c1364-f89a-481c-a440-b3e6f5382a50}, !- Handle
  Surface 5,                              !- Name
  Wall,                                   !- Surface Type
  ,                                       !- Construction Name
  {e2aa1824-ef9f-4f6b-b20a-373119159e22}, !- Space Name
  Outdoors,                               !- Outside Boundary Condition
  ,                                       !- Outside Boundary Condition Object
  SunExposed,                             !- Sun Exposure
  WindExposed,                            !- Wind Exposure
  ,                                       !- View Factor to Ground
  ,                                       !- Number of Vertices
  -3.5527136788005e-014, -3.5527136788005e-014, 7.62, !- X,Y,Z Vertex 1 {m}
  -3.5527136788005e-014, -3.5527136788005e-014, 0, !- X,Y,Z Vertex 2 {m}
  4.57199999999997, -3.5527136788005e-014, 0, !- X,Y,Z Vertex 3 {m}
  4.57199999999997, -3.5527136788005e-014, 7.62; !- X,Y,Z Vertex 4 {m}

OS:Surface,
  {4722f58e-a5d0-4619-a174-46c78dc06f19}, !- Handle
  Surface 6,                              !- Name
  RoofCeiling,                            !- Surface Type
  ,                                       !- Construction Name
  {e2aa1824-ef9f-4f6b-b20a-373119159e22}, !- Space Name
  Outdoors,                               !- Outside Boundary Condition
  ,                                       !- Outside Boundary Condition Object
  SunExposed,                             !- Sun Exposure
  WindExposed,                            !- Wind Exposure
  ,                                       !- View Factor to Ground
  ,                                       !- Number of Vertices
  4.57199999999997, -3.5527136788005e-014, 7.62, !- X,Y,Z Vertex 1 {m}
  4.57199999999997, 4.57199999999997, 7.62, !- X,Y,Z Vertex 2 {m}
  -3.5527136788005e-014, 4.57199999999997, 7.62, !- X,Y,Z Vertex 3 {m}
  -3.5527136788005e-014, -3.5527136788005e-014, 7.62; !- X,Y,Z Vertex 4 {m}

OS:ThermalZone,
  {5c0b28d5-a140-4769-90f5-173a8079165f}, !- Handle
  Zone Gro GrocSales A end_a - Story Ground, !- Name
  1,                                      !- Multiplier
  ,                                       !- Ceiling Height {m}
  ,                                       !- Volume {m3}
  ,                                       !- Floor Area {m2}
  ,                                       !- Zone Inside Convection Algorithm
  ,                                       !- Zone Outside Convection Algorithm
  ,                                       !- Zone Conditioning Equipment List Name
  {afff27a3-791e-4370-941a-6b5f3c7866b3}, !- Zone Air Inlet Port List
  {02673eee-2b13-4292-9b1c-a12723be6dcb}, !- Zone Air Exhaust Port List
  {977cdb77-6f7f-4c9e-80e6-70febbefc797}, !- Zone Air Node Name
  {35d2b36c-553e-4261-b71a-a0d648c1af6d}, !- Zone Return Air Port List
  ,                                       !- Primary Daylighting Control Name
  ,                                       !- Fraction of Zone Controlled by Primary Daylighting Control
  ,                                       !- Secondary Daylighting Control Name
  ,                                       !- Fraction of Zone Controlled by Secondary Daylighting Control
  ,                                       !- Illuminance Map Name
  ,                                       !- Group Rendering Name
  ,                                       !- Thermostat Name
  No;                                     !- Use Ideal Air Loads

OS:Node,
  {ce6d4341-449a-4cbd-835e-c76d94b7d02f}, !- Handle
  Node 1,                                 !- Name
  {977cdb77-6f7f-4c9e-80e6-70febbefc797}, !- Inlet Port
  ;                                       !- Outlet Port

OS:Connection,
  {977cdb77-6f7f-4c9e-80e6-70febbefc797}, !- Handle
  {c7a55d9e-0ac8-450e-9fa5-99cc6f5b7205}, !- Name
  {5c0b28d5-a140-4769-90f5-173a8079165f}, !- Source Object
  11,                                     !- Outlet Port
  {ce6d4341-449a-4cbd-835e-c76d94b7d02f}, !- Target Object
  2;                                      !- Inlet Port

OS:PortList,
  {afff27a3-791e-4370-941a-6b5f3c7866b3}, !- Handle
  {6f13a962-7447-499d-a32f-659d3552c7f5}, !- Name
  {5c0b28d5-a140-4769-90f5-173a8079165f}; !- HVAC Component

OS:PortList,
  {02673eee-2b13-4292-9b1c-a12723be6dcb}, !- Handle
  {4749be4c-2260-4e47-8141-23e3c5d8a954}, !- Name
  {5c0b28d5-a140-4769-90f5-173a8079165f}; !- HVAC Component

OS:PortList,
  {35d2b36c-553e-4261-b71a-a0d648c1af6d}, !- Handle
  {26a9d237-52ad-4b96-9a6b-9f45fbc54b43}, !- Name
  {5c0b28d5-a140-4769-90f5-173a8079165f}; !- HVAC Component

OS:Sizing:Zone,
  {60419b95-b91f-4cdd-be25-8b4b11cfab1e}, !- Handle
  {5c0b28d5-a140-4769-90f5-173a8079165f}, !- Zone or ZoneList Name
  SupplyAirTemperature,                   !- Zone Cooling Design Supply Air Temperature Input Method
  14,                                     !- Zone Cooling Design Supply Air Temperature {C}
  11.11,                                  !- Zone Cooling Design Supply Air Temperature Difference {deltaC}
  SupplyAirTemperature,                   !- Zone Heating Design Supply Air Temperature Input Method
  40,                                     !- Zone Heating Design Supply Air Temperature {C}
  11.11,                                  !- Zone Heating Design Supply Air Temperature Difference {deltaC}
  0.0085,                                 !- Zone Cooling Design Supply Air Humidity Ratio {kg-H2O/kg-air}
  0.008,                                  !- Zone Heating Design Supply Air Humidity Ratio {kg-H2O/kg-air}
  ,                                       !- Zone Heating Sizing Factor
  ,                                       !- Zone Cooling Sizing Factor
  DesignDay,                              !- Cooling Design Air Flow Method
  ,                                       !- Cooling Design Air Flow Rate {m3/s}
  ,                                       !- Cooling Minimum Air Flow per Zone Floor Area {m3/s-m2}
  ,                                       !- Cooling Minimum Air Flow {m3/s}
  ,                                       !- Cooling Minimum Air Flow Fraction
  DesignDay,                              !- Heating Design Air Flow Method
  ,                                       !- Heating Design Air Flow Rate {m3/s}
  ,                                       !- Heating Maximum Air Flow per Zone Floor Area {m3/s-m2}
  ,                                       !- Heating Maximum Air Flow {m3/s}
  ,                                       !- Heating Maximum Air Flow Fraction
  ,                                       !- Design Zone Air Distribution Effectiveness in Cooling Mode
  ,                                       !- Design Zone Air Distribution Effectiveness in Heating Mode
  No,                                     !- Account for Dedicated Outdoor Air System
  NeutralSupplyAir,                       !- Dedicated Outdoor Air System Control Strategy
  autosize,                               !- Dedicated Outdoor Air Low Setpoint Temperature for Design {C}
  autosize;                               !- Dedicated Outdoor Air High Setpoint Temperature for Design {C}

OS:ZoneHVAC:EquipmentList,
  {66574ebe-ecf7-4bbc-8f26-1e5da9f9e9f1}, !- Handle
  Zone HVAC Equipment List 1,             !- Name
  {5c0b28d5-a140-4769-90f5-173a8079165f}; !- Thermal Zone

OS:Space,
  {618bc96d-a148-4d75-8149-7c4d16460796}, !- Handle
  Gro GrocSales B end_a - Story Ground,   !- Name
  {15ebd998-d96a-4dd6-a266-1f2f4fd203c9}, !- Space Type Name
  ,                                       !- Default Construction Set Name
  ,                                       !- Default Schedule Set Name
  -0,                                     !- Direction of Relative North {deg}
  -34.0766536314821,                      !- X Origin {m}
  -29.5046536314821,                      !- Y Origin {m}
  0,                                      !- Z Origin {m}
  {cd0f1b0e-529d-4a0e-9649-b37782a9bc01}, !- Building Story Name
  {549b805d-414e-4fa6-84d6-17fc447e2bcc}; !- Thermal Zone Name

OS:Surface,
  {24bf6cb0-a766-4d3d-855b-6a55bb2af834}, !- Handle
  Surface 7,                              !- Name
  Floor,                                  !- Surface Type
  ,                                       !- Construction Name
  {618bc96d-a148-4d75-8149-7c4d16460796}, !- Space Name
  Ground,                                 !- Outside Boundary Condition
  ,                                       !- Outside Boundary Condition Object
  NoSun,                                  !- Sun Exposure
  NoWind,                                 !- Wind Exposure
  ,                                       !- View Factor to Ground
  ,                                       !- Number of Vertices
  -3.5527136788005e-014, -3.19744231092045e-014, 0, !- X,Y,Z Vertex 1 {m}
  -3.5527136788005e-014, 59.0093072629642, 0, !- X,Y,Z Vertex 2 {m}
  4.57199999999997, 59.0093072629642, 0,  !- X,Y,Z Vertex 3 {m}
  4.57199999999997, -3.19744231092045e-014, 0; !- X,Y,Z Vertex 4 {m}

OS:Surface,
  {339c5c97-a68b-49d0-8553-578451b05c1c}, !- Handle
  Surface 8,                              !- Name
  Wall,                                   !- Surface Type
  ,                                       !- Construction Name
  {618bc96d-a148-4d75-8149-7c4d16460796}, !- Space Name
  Outdoors,                               !- Outside Boundary Condition
  ,                                       !- Outside Boundary Condition Object
  SunExposed,                             !- Sun Exposure
  WindExposed,                            !- Wind Exposure
  ,                                       !- View Factor to Ground
  ,                                       !- Number of Vertices
  -3.5527136788005e-014, 59.0093072629642, 7.62, !- X,Y,Z Vertex 1 {m}
  -3.5527136788005e-014, 59.0093072629642, 0, !- X,Y,Z Vertex 2 {m}
  -3.5527136788005e-014, -3.19744231092045e-014, 0, !- X,Y,Z Vertex 3 {m}
  -3.5527136788005e-014, -3.19744231092045e-014, 7.62; !- X,Y,Z Vertex 4 {m}

OS:Surface,
  {d64269e4-d454-4f8d-9037-9ec1292cf48d}, !- Handle
  Surface 9,                              !- Name
  Wall,                                   !- Surface Type
  ,                                       !- Construction Name
  {618bc96d-a148-4d75-8149-7c4d16460796}, !- Space Name
  Surface,                                !- Outside Boundary Condition
  {8c75d1ba-8dc8-476f-b3e0-5d2b638bc36b}, !- Outside Boundary Condition Object
  NoSun,                                  !- Sun Exposure
  NoWind,                                 !- Wind Exposure
  ,                                       !- View Factor to Ground
  ,                                       !- Number of Vertices
  4.57199999999997, 59.0093072629642, 7.62, !- X,Y,Z Vertex 1 {m}
  4.57199999999997, 59.0093072629642, 0,  !- X,Y,Z Vertex 2 {m}
  -3.5527136788005e-014, 59.0093072629642, 0, !- X,Y,Z Vertex 3 {m}
  -3.5527136788005e-014, 59.0093072629642, 7.62; !- X,Y,Z Vertex 4 {m}

OS:Surface,
  {55c72bf6-83db-47c3-8a8f-449622649c76}, !- Handle
  Surface 10,                             !- Name
  Wall,                                   !- Surface Type
  ,                                       !- Construction Name
  {618bc96d-a148-4d75-8149-7c4d16460796}, !- Space Name
  Surface,                                !- Outside Boundary Condition
  {d67d87d4-50f6-4fc8-af7b-cd848dc860c4}, !- Outside Boundary Condition Object
  NoSun,                                  !- Sun Exposure
  NoWind,                                 !- Wind Exposure
  ,                                       !- View Factor to Ground
  ,                                       !- Number of Vertices
  4.57199999999997, -3.19744231092045e-014, 7.62, !- X,Y,Z Vertex 1 {m}
  4.57199999999997, -3.19744231092045e-014, 0, !- X,Y,Z Vertex 2 {m}
  4.57199999999997, 59.0093072629642, 0,  !- X,Y,Z Vertex 3 {m}
  4.57199999999997, 59.0093072629642, 7.62; !- X,Y,Z Vertex 4 {m}

OS:Surface,
  {6d3b3ce3-88a1-4ec4-9334-70d6cd83a184}, !- Handle
  Surface 11,                             !- Name
  Wall,                                   !- Surface Type
  ,                                       !- Construction Name
  {618bc96d-a148-4d75-8149-7c4d16460796}, !- Space Name
  Surface,                                !- Outside Boundary Condition
  {e2ec0d89-0f2a-49ac-9db8-83d9d3e61230}, !- Outside Boundary Condition Object
  NoSun,                                  !- Sun Exposure
  NoWind,                                 !- Wind Exposure
  ,                                       !- View Factor to Ground
  ,                                       !- Number of Vertices
  -3.5527136788005e-014, -3.19744231092045e-014, 7.62, !- X,Y,Z Vertex 1 {m}
  -3.5527136788005e-014, -3.19744231092045e-014, 0, !- X,Y,Z Vertex 2 {m}
  4.57199999999997, -3.19744231092045e-014, 0, !- X,Y,Z Vertex 3 {m}
  4.57199999999997, -3.19744231092045e-014, 7.62; !- X,Y,Z Vertex 4 {m}

OS:Surface,
  {00c96d57-6160-478e-827b-8ee1cdbdee13}, !- Handle
  Surface 12,                             !- Name
  RoofCeiling,                            !- Surface Type
  ,                                       !- Construction Name
  {618bc96d-a148-4d75-8149-7c4d16460796}, !- Space Name
  Outdoors,                               !- Outside Boundary Condition
  ,                                       !- Outside Boundary Condition Object
  SunExposed,                             !- Sun Exposure
  WindExposed,                            !- Wind Exposure
  ,                                       !- View Factor to Ground
  ,                                       !- Number of Vertices
  4.57199999999997, -3.19744231092045e-014, 7.62, !- X,Y,Z Vertex 1 {m}
  4.57199999999997, 59.0093072629642, 7.62, !- X,Y,Z Vertex 2 {m}
  -3.5527136788005e-014, 59.0093072629642, 7.62, !- X,Y,Z Vertex 3 {m}
  -3.5527136788005e-014, -3.19744231092045e-014, 7.62; !- X,Y,Z Vertex 4 {m}

OS:ThermalZone,
  {549b805d-414e-4fa6-84d6-17fc447e2bcc}, !- Handle
  Zone Gro GrocSales B end_a - Story Ground, !- Name
  1,                                      !- Multiplier
  ,                                       !- Ceiling Height {m}
  ,                                       !- Volume {m3}
  ,                                       !- Floor Area {m2}
  ,                                       !- Zone Inside Convection Algorithm
  ,                                       !- Zone Outside Convection Algorithm
  ,                                       !- Zone Conditioning Equipment List Name
  {9a22280a-65d6-4876-9610-06e54ac71903}, !- Zone Air Inlet Port List
  {4fc44b62-7eb1-4ecf-ba97-914b3b2859c4}, !- Zone Air Exhaust Port List
  {2e31538f-9c56-4595-a6bb-bb6e98fc4df2}, !- Zone Air Node Name
  {d16eed86-3461-4c5d-a34a-c6aa633c1974}, !- Zone Return Air Port List
  ,                                       !- Primary Daylighting Control Name
  ,                                       !- Fraction of Zone Controlled by Primary Daylighting Control
  ,                                       !- Secondary Daylighting Control Name
  ,                                       !- Fraction of Zone Controlled by Secondary Daylighting Control
  ,                                       !- Illuminance Map Name
  ,                                       !- Group Rendering Name
  ,                                       !- Thermostat Name
  No;                                     !- Use Ideal Air Loads

OS:Node,
  {fd623ff6-f9fe-4f73-8097-1a0a10ad4629}, !- Handle
  Node 2,                                 !- Name
  {2e31538f-9c56-4595-a6bb-bb6e98fc4df2}, !- Inlet Port
  ;                                       !- Outlet Port

OS:Connection,
  {2e31538f-9c56-4595-a6bb-bb6e98fc4df2}, !- Handle
  {902cf0ec-8c0e-437d-9e91-4a80431dfd92}, !- Name
  {549b805d-414e-4fa6-84d6-17fc447e2bcc}, !- Source Object
  11,                                     !- Outlet Port
  {fd623ff6-f9fe-4f73-8097-1a0a10ad4629}, !- Target Object
  2;                                      !- Inlet Port

OS:PortList,
  {9a22280a-65d6-4876-9610-06e54ac71903}, !- Handle
  {9e4a07d8-56fe-4157-b247-fedb63e4a92c}, !- Name
  {549b805d-414e-4fa6-84d6-17fc447e2bcc}; !- HVAC Component

OS:PortList,
  {4fc44b62-7eb1-4ecf-ba97-914b3b2859c4}, !- Handle
  {7d50a7a1-e914-4e6a-af2a-6f4da8154ee8}, !- Name
  {549b805d-414e-4fa6-84d6-17fc447e2bcc}; !- HVAC Component

OS:PortList,
  {d16eed86-3461-4c5d-a34a-c6aa633c1974}, !- Handle
  {9ae0f10e-3600-4f94-be16-e77d190dcdfa}, !- Name
  {549b805d-414e-4fa6-84d6-17fc447e2bcc}; !- HVAC Component

OS:Sizing:Zone,
  {b605a248-9ba9-4824-9746-b503ad26fb47}, !- Handle
  {549b805d-414e-4fa6-84d6-17fc447e2bcc}, !- Zone or ZoneList Name
  SupplyAirTemperature,                   !- Zone Cooling Design Supply Air Temperature Input Method
  14,                                     !- Zone Cooling Design Supply Air Temperature {C}
  11.11,                                  !- Zone Cooling Design Supply Air Temperature Difference {deltaC}
  SupplyAirTemperature,                   !- Zone Heating Design Supply Air Temperature Input Method
  40,                                     !- Zone Heating Design Supply Air Temperature {C}
  11.11,                                  !- Zone Heating Design Supply Air Temperature Difference {deltaC}
  0.0085,                                 !- Zone Cooling Design Supply Air Humidity Ratio {kg-H2O/kg-air}
  0.008,                                  !- Zone Heating Design Supply Air Humidity Ratio {kg-H2O/kg-air}
  ,                                       !- Zone Heating Sizing Factor
  ,                                       !- Zone Cooling Sizing Factor
  DesignDay,                              !- Cooling Design Air Flow Method
  ,                                       !- Cooling Design Air Flow Rate {m3/s}
  ,                                       !- Cooling Minimum Air Flow per Zone Floor Area {m3/s-m2}
  ,                                       !- Cooling Minimum Air Flow {m3/s}
  ,                                       !- Cooling Minimum Air Flow Fraction
  DesignDay,                              !- Heating Design Air Flow Method
  ,                                       !- Heating Design Air Flow Rate {m3/s}
  ,                                       !- Heating Maximum Air Flow per Zone Floor Area {m3/s-m2}
  ,                                       !- Heating Maximum Air Flow {m3/s}
  ,                                       !- Heating Maximum Air Flow Fraction
  ,                                       !- Design Zone Air Distribution Effectiveness in Cooling Mode
  ,                                       !- Design Zone Air Distribution Effectiveness in Heating Mode
  No,                                     !- Account for Dedicated Outdoor Air System
  NeutralSupplyAir,                       !- Dedicated Outdoor Air System Control Strategy
  autosize,                               !- Dedicated Outdoor Air Low Setpoint Temperature for Design {C}
  autosize;                               !- Dedicated Outdoor Air High Setpoint Temperature for Design {C}

OS:ZoneHVAC:EquipmentList,
  {a0213686-9333-4d4f-98cc-362e62290326}, !- Handle
  Zone HVAC Equipment List 2,             !- Name
  {549b805d-414e-4fa6-84d6-17fc447e2bcc}; !- Thermal Zone

OS:Space,
  {02418319-b92e-47fd-bba2-f6c40477f114}, !- Handle
  Gro GrocSales C end_a - Story Ground,   !- Name
  {15ebd998-d96a-4dd6-a266-1f2f4fd203c9}, !- Space Type Name
  ,                                       !- Default Construction Set Name
  ,                                       !- Default Schedule Set Name
  -0,                                     !- Direction of Relative North {deg}
  -34.0766536314821,                      !- X Origin {m}
  29.5046536314821,                       !- Y Origin {m}
  0,                                      !- Z Origin {m}
  {cd0f1b0e-529d-4a0e-9649-b37782a9bc01}, !- Building Story Name
  {7691e4d9-3828-41e2-af0e-1b4f5460eecc}; !- Thermal Zone Name

OS:Surface,
  {16aafd17-df07-439c-aba3-674e6701da17}, !- Handle
  Surface 13,                             !- Name
  Floor,                                  !- Surface Type
  ,                                       !- Construction Name
  {02418319-b92e-47fd-bba2-f6c40477f114}, !- Space Name
  Ground,                                 !- Outside Boundary Condition