
OS:Version,
  {0911b94c-55e1-41ad-bcb8-d0399f91f40f}, !- Handle
  2.7.0;                                  !- Version Identifier

OS:SpaceType,
  {d3ea1873-3d5b-48f3-9c96-520af8748c4d}, !- Handle
  Hsp HspSurgOutptLab,                    !- Name
  ,                                       !- Default Construction Set Name
  ,                                       !- Default Schedule Set Name
  ,                                       !- Group Rendering Name
  ,                                       !- Design Specification Outdoor Air Object Name
  ,                                       !- Standards Template
  Hsp,                                    !- Standards Building Type
  HspSurgOutptLab;                        !- Standards Space Type

OS:SpaceType,
  {34862abe-60f6-438c-946d-14c2dd4e89c5}, !- Handle
  Hsp Dining,                             !- Name
  ,                                       !- Default Construction Set Name
  ,                                       !- Default Schedule Set Name
  ,                                       !- Group Rendering Name
  ,                                       !- Design Specification Outdoor Air Object Name
  ,                                       !- Standards Template
  Hsp,                                    !- Standards Building Type
  Dining;                                 !- Standards Space Type

OS:SpaceType,
  {1f3b5992-ebc7-42dc-9178-419ce8eb2b4f}, !- Handle
  Hsp Kitchen,                            !- Name
  ,                                       !- Default Construction Set Name
  ,                                       !- Default Schedule Set Name
  ,                                       !- Group Rendering Name
  ,                                       !- Design Specification Outdoor Air Object Name
  ,                                       !- Standards Template
  Hsp,                                    !- Standards Building Type
  Kitchen;                                !- Standards Space Type

OS:SpaceType,
  {6cbbb66d-ba68-42a9-9d42-cd580e2ad495}, !- Handle
  Hsp OfficeGeneral,                      !- Name
  ,                                       !- Default Construction Set Name
  ,                                       !- Default Schedule Set Name
  ,                                       !- Group Rendering Name
  ,                                       !- Design Specification Outdoor Air Object Name
  ,                                       !- Standards Template
  Hsp,                                    !- Standards Building Type
  OfficeGeneral;                          !- Standards Space Type

OS:SpaceType,
  {d46d3581-82ee-4a69-b6bf-ea9ce3decd9a}, !- Handle
  Hsp PatientRoom,                        !- Name
  ,                                       !- Default Construction Set Name
  ,                                       !- Default Schedule Set Name
  ,                                       !- Group Rendering Name
  ,                                       !- Design Specification Outdoor Air Object Name
  ,                                       !- Standards Template
  Hsp,                                    !- Standards Building Type
  PatientRoom;                            !- Standards Space Type

OS:Building,
  {ac39a24e-1d44-4db6-aa62-22a85d7c2c29}, !- Handle
  DEER Pre-1975|Hsp,                      !- Name
  ,                                       !- Building Sector Type
  ,                                       !- North Axis {deg}
  ,                                       !- Nominal Floor to Floor Height {m}
  ,                                       !- Space Type Name
  ,                                       !- Default Construction Set Name
  ;                                       !- Default Schedule Set Name

OS:Site,
  {7a419d01-be5f-4a85-8b22-c1a78ddf1f87}, !- Handle
  Site 1,                                 !- Name
  ,                                       !- Latitude {deg}
  ,                                       !- Longitude {deg}
  ,                                       !- Time Zone {hr}
  ,                                       !- Elevation {m}
  ;                                       !- Terrain

OS:BuildingStory,
  {e0a6bad4-2c85-48f3-b28b-677413e6b752}, !- Handle
  Story Ground,                           !- Name
  0,                                      !- Nominal Z Coordinate {m}
  3.9624,                                 !- Nominal Floor to Floor Height {m}
  ,                                       !- Default Construction Set Name
  ,                                       !- Default Schedule Set Name
  ;                                       !- Group Rendering Name

OS:Space,
  {14f946df-fd28-442d-aa5a-e9727e51571c}, !- Handle
  Hsp PatientRoom A end_a - Story Ground, !- Name
  {d46d3581-82ee-4a69-b6bf-ea9ce3decd9a}, !- Space Type Name
  ,                                       !- Default Construction Set Name
  ,                                       !- Default Schedule Set Name
  -0,                                     !- Direction of Relative North {deg}
  -46.6613796956327,                      !- X Origin {m}
  -31.1075864637551,                      !- Y Origin {m}
  0,                                      !- Z Origin {m}
  {e0a6bad4-2c85-48f3-b28b-677413e6b752}, !- Building Story Name
  {16176921-d0e4-4ab7-953a-cb009cc19612}; !- Thermal Zone Name

OS:Surface,
  {1f5ef88f-c259-4acf-9d98-94c1efeebec5}, !- Handle
  Surface 1,                              !- Name
  Floor,                                  !- Surface Type
  ,                                       !- Construction Name
  {14f946df-fd28-442d-aa5a-e9727e51571c}, !- Space Name
  Ground,                                 !- Outside Boundary Condition
  ,                                       !- Outside Boundary Condition Object
  NoSun,                                  !- Sun Exposure
  NoWind,                                 !- Wind Exposure
  ,                                       !- View Factor to Ground
  ,                                       !- Number of Vertices
  -3.5527136788005e-014, 7.105427357601e-015, 0, !- X,Y,Z Vertex 1 {m}
  -3.5527136788005e-014, 4.57200000000001, 0, !- X,Y,Z Vertex 2 {m}
  4.57199999999996, 4.57200000000001, 0,  !- X,Y,Z Vertex 3 {m}
  4.57199999999996, 7.105427357601e-015, 0; !- X,Y,Z Vertex 4 {m}

OS:Surface,
  {f435694d-c693-4be2-989f-1c0871cfdb53}, !- Handle
  Surface 2,                              !- Name
  Wall,                                   !- Surface Type
  ,                                       !- Construction Name
  {14f946df-fd28-442d-aa5a-e9727e51571c}, !- Space Name
  Outdoors,                               !- Outside Boundary Condition
  ,                                       !- Outside Boundary Condition Object
  SunExposed,                             !- Sun Exposure
  WindExposed,                            !- Wind Exposure
  ,                                       !- View Factor to Ground
  ,                                       !- Number of Vertices
  -3.5527136788005e-014, 4.57200000000001, 3.9624, !- X,Y,Z Vertex 1 {m}
  -3.5527136788005e-014, 4.57200000000001, 0, !- X,Y,Z Vertex 2 {m}
  -3.5527136788005e-014, 7.105427357601e-015, 0, !- X,Y,Z Vertex 3 {m}
  -3.5527136788005e-014, 7.105427357601e-015, 3.9624; !- X,Y,Z Vertex 4 {m}

OS:Surface,
  {927cfe33-f2f5-42ca-aa16-8bf4460cfb42}, !- Handle
  Surface 3,                              !- Name
  Wall,                                   !- Surface Type
  ,                                       !- Construction Name
  {14f946df-fd28-442d-aa5a-e9727e51571c}, !- Space Name
  Surface,                                !- Outside Boundary Condition
  {15e58d3f-d979-482f-ba8e-89e4a7b9c063}, !- Outside Boundary Condition Object
  NoSun,                                  !- Sun Exposure
  NoWind,                                 !- Wind Exposure
  ,                                       !- View Factor to Ground
  ,                                       !- Number of Vertices
  4.57199999999996, 4.57200000000001, 3.9624, !- X,Y,Z Vertex 1 {m}
  4.57199999999996, 4.57200000000001, 0,  !- X,Y,Z Vertex 2 {m}
  -3.5527136788005e-014, 4.57200000000001, 0, !- X,Y,Z Vertex 3 {m}
  -3.5527136788005e-014, 4.57200000000001, 3.9624; !- X,Y,Z Vertex 4 {m}

OS:Surface,
  {b20dabe6-777b-40f6-a611-8684d0448040}, !- Handle
  Surface 4,                              !- Name
  Wall,                                   !- Surface Type
  ,                                       !- Construction Name
  {14f946df-fd28-442d-aa5a-e9727e51571c}, !- Space Name
  Surface,                                !- Outside Boundary Condition
  {dfd888ba-231e-4144-9112-ea9357ddae73}, !- Outside Boundary Condition Object
  NoSun,                                  !- Sun Exposure
  NoWind,                                 !- Wind Exposure
  ,                                       !- View Factor to Ground
  ,                                       !- Number of Vertices
  4.57199999999996, 7.105427357601e-015, 3.9624, !- X,Y,Z Vertex 1 {m}
  4.57199999999996, 7.105427357601e-015, 0, !- X,Y,Z Vertex 2 {m}
  4.57199999999996, 4.57200000000001, 0,  !- X,Y,Z Vertex 3 {m}
  4.57199999999996, 4.57200000000001, 3.9624; !- X,Y,Z Vertex 4 {m}

OS:Surface,
  {334d09b4-98f0-4250-95d5-982aa8fcb5b9}, !- Handle
  Surface 5,                              !- Name
  Wall,                                   !- Surface Type
  ,                                       !- Construction Name
  {14f946df-fd28-442d-aa5a-e9727e51571c}, !- Space Name
  Outdoors,                               !- Outside Boundary Condition
  ,                                       !- Outside Boundary Condition Object
  SunExposed,                             !- Sun Exposure
  WindExposed,                            !- Wind Exposure
  ,                                       !- View Factor to Ground
  ,                                       !- Number of Vertices
  -3.5527136788005e-014, 7.105427357601e-015, 3.9624, !- X,Y,Z Vertex 1 {m}
  -3.5527136788005e-014, 7.105427357601e-015, 0, !- X,Y,Z Vertex 2 {m}
  4.57199999999996, 7.105427357601e-015, 0, !- X,Y,Z Vertex 3 {m}
  4.57199999999996, 7.105427357601e-015, 3.9624; !- X,Y,Z Vertex 4 {m}

OS:Surface,
  {bcd41dd1-c018-4203-bbd7-c522cb5c1195}, !- Handle
  Surface 6,                              !- Name
  RoofCeiling,                            !- Surface Type
  ,                                       !- Construction Name
  {14f946df-fd28-442d-aa5a-e9727e51571c}, !- Space Name
  Adiabatic,                              !- Outside Boundary Condition
  ,                                       !- Outside Boundary Condition Object
  NoSun,                                  !- Sun Exposure
  NoWind,                                 !- Wind Exposure
  ,                                       !- View Factor to Ground
  ,                                       !- Number of Vertices
  4.57199999999996, 7.105427357601e-015, 3.9624, !- X,Y,Z Vertex 1 {m}
  4.57199999999996, 4.57200000000001, 3.9624, !- X,Y,Z Vertex 2 {m}
  -3.5527136788005e-014, 4.57200000000001, 3.9624, !- X,Y,Z Vertex 3 {m}
  -3.5527136788005e-014, 7.105427357601e-015, 3.9624; !- X,Y,Z Vertex 4 {m}

OS:ThermalZone,
  {16176921-d0e4-4ab7-953a-cb009cc19612}, !- Handle
  Zone Hsp PatientRoom A end_a - Story Ground, !- Name
  1,                                      !- Multiplier
  ,                                       !- Ceiling Height {m}
  ,                                       !- Volume {m3}
  ,                                       !- Floor Area {m2}
  ,                                       !- Zone Inside Convection Algorithm
  ,                                       !- Zone Outside Convection Algorithm
  ,                                       !- Zone Conditioning Equipment List Name
  {9a9a1e58-9f97-41f6-adc5-60f107865e45}, !- Zone Air Inlet Port List
  {206e7d79-b1f4-4c0a-a28b-4e07dd98cf56}, !- Zone Air Exhaust Port List
  {ad80afb7-cc40-4126-8bc8-53c0885960b6}, !- Zone Air Node Name
  {3c0e82b6-3b34-4f53-82db-24daba1de2c4}, !- Zone Return Air Port List
  ,                                       !- Primary Daylighting Control Name
  ,                                       !- Fraction of Zone Controlled by Primary Daylighting Control
  ,                                       !- Secondary Daylighting Control Name
  ,                                       !- Fraction of Zone Controlled by Secondary Daylighting Control
  ,                                       !- Illuminance Map Name
  ,                                       !- Group Rendering Name
  ,                                       !- Thermostat Name
  No;                                     !- Use Ideal Air Loads

OS:Node,
  {34c2deb5-fc6b-48ec-a0f3-84c69f9a0b9c}, !- Handle
  Node 1,                                 !- Name
  {ad80afb7-cc40-4126-8bc8-53c0885960b6}, !- Inlet Port
  ;                                       !- Outlet Port

OS:Connection,
  {ad80afb7-cc40-4126-8bc8-53c0885960b6}, !- Handle
  {18817a4c-60e1-4e78-ba13-978476025f3c}, !- Name
  {16176921-d0e4-4ab7-953a-cb009cc19612}, !- Source Object
  11,                                     !- Outlet Port
  {34c2deb5-fc6b-48ec-a0f3-84c69f9a0b9c}, !- Target Object
  2;                                      !- Inlet Port

OS:PortList,
  {9a9a1e58-9f97-41f6-adc5-60f107865e45}, !- Handle
  {947998b8-b99c-41ef-a32a-62af4a90638c}, !- Name
  {16176921-d0e4-4ab7-953a-cb009cc19612}; !- HVAC Component

OS:PortList,
  {206e7d79-b1f4-4c0a-a28b-4e07dd98cf56}, !- Handle
  {fce8ad15-1c41-4b33-b4d3-f963711ed8c5}, !- Name
  {16176921-d0e4-4ab7-953a-cb009cc19612}; !- HVAC Component

OS:PortList,
  {3c0e82b6-3b34-4f53-82db-24daba1de2c4}, !- Handle
  {2c90a81f-1c8c-40c8-8e2b-33fea67d79d1}, !- Name
  {16176921-d0e4-4ab7-953a-cb009cc19612}; !- HVAC Component

OS:Sizing:Zone,
  {1132371b-5dd1-49f5-8cec-2afb2db91905}, !- Handle
  {16176921-d0e4-4ab7-953a-cb009cc19612}, !- Zone or ZoneList Name
  SupplyAirTemperature,                   !- Zone Cooling Design Supply Air Temperature Input Method
  14,                                     !- Zone Cooling Design Supply Air Temperature {C}
  11.11,                                  !- Zone Cooling Design Supply Air Temperature Difference {deltaC}
  SupplyAirTemperature,                   !- Zone Heating Design Supply Air Temperature Input Method
  40,                                     !- Zone Heating Design Supply Air Temperature {C}
  11.11,                                  !- Zone Heating Design Supply Air Temperature Difference {deltaC}
  0.0085,                                 !- Zone Cooling Design Supply Air Humidity Ratio {kg-H2O/kg-air}
  0.008,                                  !- Zone Heating Design Supply Air Humidity Ratio {kg-H2O/kg-air}
  ,                                       !- Zone Heating Sizing Factor
  ,                                       !- Zone Cooling Sizing Factor
  DesignDay,                              !- Cooling Design Air Flow Method
  ,                                       !- Cooling Design Air Flow Rate {m3/s}
  ,                                       !- Cooling Minimum Air Flow per Zone Floor Area {m3/s-m2}
  ,                                       !- Cooling Minimum Air Flow {m3/s}
  ,                                       !- Cooling Minimum Air Flow Fraction
  DesignDay,                              !- Heating Design Air Flow Method
  ,                                       !- Heating Design Air Flow Rate {m3/s}
  ,                                       !- Heating Maximum Air Flow per Zone Floor Area {m3/s-m2}
  ,                                       !- Heating Maximum Air Flow {m3/s}
  ,                                       !- Heating Maximum Air Flow Fraction
  ,                                       !- Design Zone Air Distribution Effectiveness in Cooling Mode
  ,                                       !- Design Zone Air Distribution Effectiveness in Heating Mode
  No,                                     !- Account for Dedicated Outdoor Air System
  NeutralSupplyAir,                       !- Dedicated Outdoor Air System Control Strategy
  autosize,                               !- Dedicated Outdoor Air Low Setpoint Temperature for Design {C}
  autosize;                               !- Dedicated Outdoor Air High Setpoint Temperature for Design {C}

OS:ZoneHVAC:EquipmentList,
  {4939bc56-975a-4b4e-af2d-c87459f08cf5}, !- Handle
  Zone HVAC Equipment List 1,             !- Name
  {16176921-d0e4-4ab7-953a-cb009cc19612}; !- Thermal Zone

OS:Space,
  {7610d7f6-3a5a-4689-add8-ac129177aac7}, !- Handle
  Hsp PatientRoom B end_a - Story Ground, !- Name
  {d46d3581-82ee-4a69-b6bf-ea9ce3decd9a}, !- Space Type Name
  ,                                       !- Default Construction Set Name
  ,                                       !- Default Schedule Set Name
  -0,                                     !- Direction of Relative North {deg}
  -46.6613796956327,                      !- X Origin {m}
  -26.5355864637551,                      !- Y Origin {m}
  0,                                      !- Z Origin {m}
  {e0a6bad4-2c85-48f3-b28b-677413e6b752}, !- Building Story Name
  {f23d641d-4e04-4b47-b859-7dfafd960b71}; !- Thermal Zone Name

OS:Surface,
  {3230f835-96d0-4408-baf0-64a250a74d2b}, !- Handle
  Surface 7,                              !- Name
  Floor,                                  !- Surface Type
  ,                                       !- Construction Name
  {7610d7f6-3a5a-4689-add8-ac129177aac7}, !- Space Name
  Ground,                                 !- Outside Boundary Condition
  ,                                       !- Outside Boundary Condition Object
  NoSun,                                  !- Sun Exposure
  NoWind,                                 !- Wind Exposure
  ,                                       !- View Factor to Ground
  ,                                       !- Number of Vertices
  -3.5527136788005e-014, 1.06581410364015e-014, 0, !- X,Y,Z Vertex 1 {m}
  -3.5527136788005e-014, 53.0711729275102, 0, !- X,Y,Z Vertex 2 {m}
  4.57199999999996, 53.0711729275102, 0,  !- X,Y,Z Vertex 3 {m}
  4.57199999999996, 1.06581410364015e-014, 0; !- X,Y,Z Vertex 4 {m}

OS:Surface,
  {e0fd1124-a176-435a-b089-c81b92e9baaf}, !- Handle
  Surface 8,                              !- Name
  Wall,                                   !- Surface Type
  ,                                       !- Construction Name
  {7610d7f6-3a5a-4689-add8-ac129177aac7}, !- Space Name
  Outdoors,                               !- Outside Boundary Condition
  ,                                       !- Outside Boundary Condition Object
  SunExposed,                             !- Sun Exposure
  WindExposed,                            !- Wind Exposure
  ,                                       !- View Factor to Ground
  ,                                       !- Number of Vertices
  -3.5527136788005e-014, 53.0711729275102, 3.9624, !- X,Y,Z Vertex 1 {m}
  -3.5527136788005e-014, 53.0711729275102, 0, !- X,Y,Z Vertex 2 {m}
  -3.5527136788005e-014, 1.06581410364015e-014, 0, !- X,Y,Z Vertex 3 {m}
  -3.5527136788005e-014, 1.06581410364015e-014, 3.9624; !- X,Y,Z Vertex 4 {m}

OS:Surface,
  {bc4a7e0b-6014-4999-83e4-414059884672}, !- Handle
  Surface 9,                              !- Name
  Wall,                                   !- Surface Type
  ,                                       !- Construction Name
  {7610d7f6-3a5a-4689-add8-ac129177aac7}, !- Space Name
  Surface,                                !- Outside Boundary Condition
  {4fd5672b-6d1f-46cf-85aa-e391febca66c}, !- Outside Boundary Condition Object
  NoSun,                                  !- Sun Exposure
  NoWind,                                 !- Wind Exposure
  ,                                       !- View Factor to Ground
  ,                                       !- Number of Vertices
  4.57199999999996, 53.0711729275102, 3.9624, !- X,Y,Z Vertex 1 {m}
  4.57199999999996, 53.0711729275102, 0,  !- X,Y,Z Vertex 2 {m}
  -3.5527136788005e-014, 53.0711729275102, 0, !- X,Y,Z Vertex 3 {m}
  -3.5527136788005e-014, 53.0711729275102, 3.9624; !- X,Y,Z Vertex 4 {m}

OS:Surface,
  {cc8acfc5-7882-4eb3-9500-8cb5f548cc33}, !- Handle
  Surface 10,                             !- Name
  Wall,                                   !- Surface Type
  ,                                       !- Construction Name
  {7610d7f6-3a5a-4689-add8-ac129177aac7}, !- Space Name
  Surface,                                !- Outside Boundary Condition
  {a3bf56bb-3095-4028-884f-27bcd4bc442c}, !- Outside Boundary Condition Object
  NoSun,                                  !- Sun Exposure
  NoWind,                                 !- Wind Exposure
  ,                                       !- View Factor to Ground
  ,                                       !- Number of Vertices
  4.57199999999996, 1.06581410364015e-014, 3.9624, !- X,Y,Z Vertex 1 {m}
  4.57199999999996, 1.06581410364015e-014, 0, !- X,Y,Z Vertex 2 {m}
  4.57199999999996, 53.0711729275102, 0,  !- X,Y,Z Vertex 3 {m}
  4.57199999999996, 53.0711729275102, 3.9624; !- X,Y,Z Vertex 4 {m}

OS:Surface,
  {15e58d3f-d979-482f-ba8e-89e4a7b9c063}, !- Handle
  Surface 11,                             !- Name
  Wall,                                   !- Surface Type
  ,                                       !- Construction Name
  {7610d7f6-3a5a-4689-add8-ac129177aac7}, !- Space Name
  Surface,                                !- Outside Boundary Condition
  {927cfe33-f2f5-42ca-aa16-8bf4460cfb42}, !- Outside Boundary Condition Object
  NoSun,                                  !- Sun Exposure
  NoWind,                                 !- Wind Exposure
  ,                                       !- View Factor to Ground
  ,                                       !- Number of Vertices
  -3.5527136788005e-014, 1.06581410364015e-014, 3.9624, !- X,Y,Z Vertex 1 {m}
  -3.5527136788005e-014, 1.06581410364015e-014, 0, !- X,Y,Z Vertex 2 {m}
  4.57199999999996, 1.06581410364015e-014, 0, !- X,Y,Z Vertex 3 {m}
  4.57199999999996, 1.06581410364015e-014, 3.9624; !- X,Y,Z Vertex 4 {m}

OS:Surface,
  {e10b8659-9452-4720-97fc-cd5a975a1ae5}, !- Handle
  Surface 12,                             !- Name
  RoofCeiling,                            !- Surface Type
  ,                                       !- Construction Name
  {7610d7f6-3a5a-4689-add8-ac129177aac7}, !- Space Name
  Adiabatic,                              !- Outside Boundary Condition
  ,                                       !- Outside Boundary Condition Object
  NoSun,                                  !- Sun Exposure
  NoWind,                                 !- Wind Exposure
  ,                                       !- View Factor to Ground
  ,                                       !- Number of Vertices
  4.57199999999996, 1.06581410364015e-014, 3.9624, !- X,Y,Z Vertex 1 {m}
  4.57199999999996, 53.0711729275102, 3.9624, !- X,Y,Z Vertex 2 {m}
  -3.5527136788005e-014, 53.0711729275102, 3.9624, !- X,Y,Z Vertex 3 {m}
  -3.5527136788005e-014, 1.06581410364015e-014, 3.9624; !- X,Y,Z Vertex 4 {m}

OS:ThermalZone,
  {f23d641d-4e04-4b47-b859-7dfafd960b71}, !- Handle
  Zone Hsp PatientRoom B end_a - Story Ground, !- Name
  1,                                      !- Multiplier
  ,                                       !- Ceiling Height {m}
  ,                                       !- Volume {m3}
  ,                                       !- Floor Area {m2}
  ,                                       !- Zone Inside Convection Algorithm
  ,                                       !- Zone Outside Convection Algorithm
  ,                                       !- Zone Conditioning Equipment List Name
  {a75697de-049c-4984-a83e-208d36c34435}, !- Zone Air Inlet Port List
  {a371feb0-5281-448d-8262-5f6aaef30fdd}, !- Zone Air Exhaust Port List
  {93f084ff-fb6d-4131-96b4-0e77bab2a36c}, !- Zone Air Node Name
  {dd6edee9-93f6-4efc-bb5a-52dbb8306ea2}, !- Zone Return Air Port List
  ,                                       !- Primary Daylighting Control Name
  ,                                       !- Fraction of Zone Controlled by Primary Daylighting Control
  ,                                       !- Secondary Daylighting Control Name
  ,                                       !- Fraction of Zone Controlled by Secondary Daylighting Control
  ,                                       !- Illuminance Map Name
  ,                                       !- Group Rendering Name
  ,                                       !- Thermostat Name
  No;                                     !- Use Ideal Air Loads

OS:Node,
  {a72e313b-b41f-4a5f-b772-34ef6efc1a6a}, !- Handle
  Node 2,                                 !- Name
  {93f084ff-fb6d-4131-96b4-0e77bab2a36c}, !- Inlet Port
  ;                                       !- Outlet Port

OS:Connection,
  {93f084ff-fb6d-4131-96b4-0e77bab2a36c}, !- Handle
  {b1dbf4b1-2de9-4e1c-ae6f-2dbf3c72d9d1}, !- Name
  {f23d641d-4e04-4b47-b859-7dfafd960b71}, !- Source Object
  11,                                     !- Outlet Port
  {a72e313b-b41f-4a5f-b772-34ef6efc1a6a}, !- Target Object
  2;                                      !- Inlet Port

OS:PortList,
  {a75697de-049c-4984-a83e-208d36c34435}, !- Handle
  {56bc006d-6e4e-4a3e-a56e-4c0ca2576165}, !- Name
  {f23d641d-4e04-4b47-b859-7dfafd960b71}; !- HVAC Component

OS:PortList,
  {a371feb0-5281-448d-8262-5f6aaef30fdd}, !- Handle
  {36a2b33d-c3f8-41d8-8936-ca3f2063fa02}, !- Name
  {f23d641d-4e04-4b47-b859-7dfafd960b71}; !- HVAC Component

OS:PortList,
  {dd6edee9-93f6-4efc-bb5a-52dbb8306ea2}, !- Handle
  {26e284d5-7410-4e21-a457-ca6779c041fd}, !- Name
  {f23d641d-4e04-4b47-b859-7dfafd960b71}; !- HVAC Component

OS:Sizing:Zone,
  {eab36b66-636a-41ac-a01c-3c3cc2c61e7d}, !- Handle
  {f23d641d-4e04-4b47-b859-7dfafd960b71}, !- Zone or ZoneList Name
  SupplyAirTemperature,                   !- Zone Cooling Design Supply Air Temperature Input Method
  14,                                     !- Zone Cooling Design Supply Air Temperature {C}
  11.11,                                  !- Zone Cooling Design Supply Air Temperature Difference {deltaC}
  SupplyAirTemperature,                   !- Zone Heating Design Supply Air Temperature Input Method
  40,                                     !- Zone Heating Design Supply Air Temperature {C}
  11.11,                                  !- Zone Heating Design Supply Air Temperature Difference {deltaC}
  0.0085,                                 !- Zone Cooling Design Supply Air Humidity Ratio {kg-H2O/kg-air}
  0.008,                                  !- Zone Heating Design Supply Air Humidity Ratio {kg-H2O/kg-air}
  ,                                       !- Zone Heating Sizing Factor
  ,                                       !- Zone Cooling Sizing Factor
  DesignDay,                              !- Cooling Design Air Flow Method
  ,                                       !- Cooling Design Air Flow Rate {m3/s}
  ,                                       !- Cooling Minimum Air Flow per Zone Floor Area {m3/s-m2}
  ,                                       !- Cooling Minimum Air Flow {m3/s}
  ,                                       !- Cooling Minimum Air Flow Fraction
  DesignDay,                              !- Heating Design Air Flow Method
  ,                                       !- Heating Design Air Flow Rate {m3/s}
  ,                                       !- Heating Maximum Air Flow per Zone Floor Area {m3/s-m2}
  ,                                       !- Heating Maximum Air Flow {m3/s}
  ,                                       !- Heating Maximum Air Flow Fraction
  ,                                       !- Design Zone Air Distribution Effectiveness in Cooling Mode
  ,                                       !- Design Zone Air Distribution Effectiveness in Heating Mode
  No,                                     !- Account for Dedicated Outdoor Air System
  NeutralSupplyAir,                       !- Dedicated Outdoor Air System Control Strategy
  autosize,                               !- Dedicated Outdoor Air Low Setpoint Temperature for Design {C}
  autosize;                               !- Dedicated Outdoor Air High Setpoint Temperature for Design {C}

OS:ZoneHVAC:EquipmentList,
  {020da2e8-8752-40f0-8033-271c2f3bfe2e}, !- Handle
  Zone HVAC Equipment List 2,             !- Name
  {f23d641d-4e04-4b47-b859-7dfafd960b71}; !- Thermal Zone

OS:Space,
  {0b63a452-5a58-4bf1-99ae-995621e4b23f}, !- Handle
  Hsp PatientRoom C end_a - Story Ground, !- Name
  {d46d3581-82ee-4a69-b6bf-ea9ce3decd9a}, !- Space Type Name
  ,                                       !- Default Construction Set Name
  ,                                       !- Default Schedule Set Name
  -0,                                     !- Direction of Relative North {deg}
  -46.6613796956327,                      !- X Origin {m}
  26.5355864637551,                       !- Y Origin {m}
  0,                                      !- Z Origin {m}
  {e0a6bad4-2c85-48f3-b28b-677413e6b752}, !- Building Story Name
  {0d16569f-1efc-4563-bba0-e2b12a1b25ee}; !- Thermal Zone Name

OS:Surface,
  {a9955f0f-8d40-4ac6-a8eb-41fa3016d0a4}, !- Handle
  Surface 13,                             !- Name
  Floor,                                  !- Surface Type
  ,                                       !- Construction Name
  {0b63a452-5a58-4bf1-99ae-995621e4b23f}, !- Space Name
  Ground,                                 !- Outside Boundary Condition
  ,                                       !- Outside Boundary Condition Object
  NoSun,                                  !- Sun Exposure
  NoWind,                                 !- Wind Exposure
  ,                                       !- View Factor to Ground
  ,                                       !- Number of Vertices
  -3.5527136788005e-014, -1.06581410364015e-014, 0, !- X,Y,Z Vertex 1 {m}
  -3.5527136788005e-014, 4.57199999999999, 0, !- X,Y,Z Vertex 2 {m}
  4.57199999999996, 4.57199999999999, 0,  !- X,Y,Z Vertex 3 {m}
  4.57199999999996, -1.06581410364015e-014, 0; !- X,Y,Z Vertex 4 {m}
