
OS:Version,
  {0fe7d652-eeff-4f3e-9668-3a5875e469b1}, !- Handle
  2.7.0;                                  !- Version Identifier

OS:SpaceType,
  {8bf601b3-c5ea-41f4-8407-9cb414095fb4}, !- Handle
  Htl Dining,                             !- Name
  ,                                       !- Default Construction Set Name
  ,                                       !- Default Schedule Set Name
  ,                                       !- Group Rendering Name
  ,                                       !- Design Specification Outdoor Air Object Name
  ,                                       !- Standards Template
  Htl,                                    !- Standards Building Type
  Dining;                                 !- Standards Space Type

OS:SpaceType,
  {c0cb69fc-bae6-41f5-b4d3-adcd839b76d7}, !- Handle
  Htl BarCasino,                          !- Name
  ,                                       !- Default Construction Set Name
  ,                                       !- Default Schedule Set Name
  ,                                       !- Group Rendering Name
  ,                                       !- Design Specification Outdoor Air Object Name
  ,                                       !- Standards Template
  Htl,                                    !- Standards Building Type
  BarCasino;                              !- Standards Space Type

OS:SpaceType,
  {5dd639e8-a474-4d4d-b46f-cb3c5b55363f}, !- Handle
  Htl HotelLobby,                         !- Name
  ,                                       !- Default Construction Set Name
  ,                                       !- Default Schedule Set Name
  ,                                       !- Group Rendering Name
  ,                                       !- Design Specification Outdoor Air Object Name
  ,                                       !- Standards Template
  Htl,                                    !- Standards Building Type
  HotelLobby;                             !- Standards Space Type

OS:SpaceType,
  {01bd9477-ee36-4e50-b25a-f234ee80edd5}, !- Handle
  Htl OfficeGeneral,                      !- Name
  ,                                       !- Default Construction Set Name
  ,                                       !- Default Schedule Set Name
  ,                                       !- Group Rendering Name
  ,                                       !- Design Specification Outdoor Air Object Name
  ,                                       !- Standards Template
  Htl,                                    !- Standards Building Type
  OfficeGeneral;                          !- Standards Space Type

OS:SpaceType,
  {7ef12b17-d690-429f-9f7c-55c5080279f0}, !- Handle
  Htl GuestRmCorrid,                      !- Name
  ,                                       !- Default Construction Set Name
  ,                                       !- Default Schedule Set Name
  ,                                       !- Group Rendering Name
  ,                                       !- Design Specification Outdoor Air Object Name
  ,                                       !- Standards Template
  Htl,                                    !- Standards Building Type
  GuestRmCorrid;                          !- Standards Space Type

OS:SpaceType,
  {6419037f-9cd2-4849-8634-1a9a8a2501c2}, !- Handle
  Htl Laundry,                            !- Name
  ,                                       !- Default Construction Set Name
  ,                                       !- Default Schedule Set Name
  ,                                       !- Group Rendering Name
  ,                                       !- Design Specification Outdoor Air Object Name
  ,                                       !- Standards Template
  Htl,                                    !- Standards Building Type
  Laundry;                                !- Standards Space Type

OS:SpaceType,
  {edb4fcc7-9132-4d97-b72e-a6fd006ea574}, !- Handle
  Htl GuestRmOcc,                         !- Name
  ,                                       !- Default Construction Set Name
  ,                                       !- Default Schedule Set Name
  ,                                       !- Group Rendering Name
  ,                                       !- Design Specification Outdoor Air Object Name
  ,                                       !- Standards Template
  Htl,                                    !- Standards Building Type
  GuestRmOcc;                             !- Standards Space Type

OS:SpaceType,
  {81067ee9-8179-474d-b7a8-7f4d1d8cad1b}, !- Handle
  Htl Kitchen,                            !- Name
  ,                                       !- Default Construction Set Name
  ,                                       !- Default Schedule Set Name
  ,                                       !- Group Rendering Name
  ,                                       !- Design Specification Outdoor Air Object Name
  ,                                       !- Standards Template
  Htl,                                    !- Standards Building Type
  Kitchen;                                !- Standards Space Type

OS:Building,
  {76e4fd98-8343-4927-a387-26161ae1ea38}, !- Handle
  DEER Pre-1975|Htl,                      !- Name
  ,                                       !- Building Sector Type
  ,                                       !- North Axis {deg}
  ,                                       !- Nominal Floor to Floor Height {m}
  ,                                       !- Space Type Name
  ,                                       !- Default Construction Set Name
  ;                                       !- Default Schedule Set Name

OS:Site,
  {b85ed350-fa9a-4168-a66c-2f41c3ddaa0a}, !- Handle
  Site 1,                                 !- Name
  ,                                       !- Latitude {deg}
  ,                                       !- Longitude {deg}
  ,                                       !- Time Zone {hr}
  ,                                       !- Elevation {m}
  ;                                       !- Terrain

OS:BuildingStory,
  {dafd44ab-df44-4633-9155-0fda9afa8fde}, !- Handle
  Story Ground,                           !- Name
  0,                                      !- Nominal Z Coordinate {m}
  2.8956,                                 !- Nominal Floor to Floor Height {m}
  ,                                       !- Default Construction Set Name
  ,                                       !- Default Schedule Set Name
  ;                                       !- Group Rendering Name

OS:Space,
  {fabaede1-0d12-4738-8801-b57fd642b349}, !- Handle
  Htl GuestRmOcc A end_a - Story Ground,  !- Name
  {edb4fcc7-9132-4d97-b72e-a6fd006ea574}, !- Space Type Name
  ,                                       !- Default Construction Set Name
  ,                                       !- Default Schedule Set Name
  -0,                                     !- Direction of Relative North {deg}
  -48.2028696581438,                      !- X Origin {m}
  -16.0676232193813,                      !- Y Origin {m}
  0,                                      !- Z Origin {m}
  {dafd44ab-df44-4633-9155-0fda9afa8fde}, !- Building Story Name
  {d5bbff85-0043-491b-a32c-4f3008a4f77d}; !- Thermal Zone Name

OS:Surface,
  {abc6054e-5e3a-424e-8d31-5e93c6ced897}, !- Handle
  Surface 1,                              !- Name
  Floor,                                  !- Surface Type
  ,                                       !- Construction Name
  {fabaede1-0d12-4738-8801-b57fd642b349}, !- Space Name
  Ground,                                 !- Outside Boundary Condition
  ,                                       !- Outside Boundary Condition Object
  NoSun,                                  !- Sun Exposure
  NoWind,                                 !- Wind Exposure
  ,                                       !- View Factor to Ground
  ,                                       !- Number of Vertices
  7.105427357601e-015, -3.5527136788005e-014, 0, !- X,Y,Z Vertex 1 {m}
  7.105427357601e-015, 4.57199999999996, 0, !- X,Y,Z Vertex 2 {m}
  4.572, 4.57199999999996, 0,             !- X,Y,Z Vertex 3 {m}
  4.572, -3.5527136788005e-014, 0;        !- X,Y,Z Vertex 4 {m}

OS:Surface,
  {43c3d2cf-73c7-44c0-b78c-b48aa0e4c1fd}, !- Handle
  Surface 2,                              !- Name
  Wall,                                   !- Surface Type
  ,                                       !- Construction Name
  {fabaede1-0d12-4738-8801-b57fd642b349}, !- Space Name
  Outdoors,                               !- Outside Boundary Condition
  ,                                       !- Outside Boundary Condition Object
  SunExposed,                             !- Sun Exposure
  WindExposed,                            !- Wind Exposure
  ,                                       !- View Factor to Ground
  ,                                       !- Number of Vertices
  7.105427357601e-015, 4.57199999999996, 2.8956, !- X,Y,Z Vertex 1 {m}
  7.105427357601e-015, 4.57199999999996, 0, !- X,Y,Z Vertex 2 {m}
  7.105427357601e-015, -3.5527136788005e-014, 0, !- X,Y,Z Vertex 3 {m}
  7.105427357601e-015, -3.5527136788005e-014, 2.8956; !- X,Y,Z Vertex 4 {m}

OS:Surface,
  {95c6b867-e824-4290-8d4b-5fe6ca8f4492}, !- Handle
  Surface 3,                              !- Name
  Wall,                                   !- Surface Type
  ,                                       !- Construction Name
  {fabaede1-0d12-4738-8801-b57fd642b349}, !- Space Name
  Surface,                                !- Outside Boundary Condition
  {8926be5c-6115-49c4-91da-80eeae25e30c}, !- Outside Boundary Condition Object
  NoSun,                                  !- Sun Exposure
  NoWind,                                 !- Wind Exposure
  ,                                       !- View Factor to Ground
  ,                                       !- Number of Vertices
  4.572, 4.57199999999996, 2.8956,        !- X,Y,Z Vertex 1 {m}
  4.572, 4.57199999999996, 0,             !- X,Y,Z Vertex 2 {m}
  7.105427357601e-015, 4.57199999999996, 0, !- X,Y,Z Vertex 3 {m}
  7.105427357601e-015, 4.57199999999996, 2.8956; !- X,Y,Z Vertex 4 {m}

OS:Surface,
  {6780ec84-afb2-4623-afee-09092d0f9bc8}, !- Handle
  Surface 4,                              !- Name
  Wall,                                   !- Surface Type
  ,                                       !- Construction Name
  {fabaede1-0d12-4738-8801-b57fd642b349}, !- Space Name
  Surface,                                !- Outside Boundary Condition
  {505cbe31-76c4-460d-af1e-7463d72aa612}, !- Outside Boundary Condition Object
  NoSun,                                  !- Sun Exposure
  NoWind,                                 !- Wind Exposure
  ,                                       !- View Factor to Ground
  ,                                       !- Number of Vertices
  4.572, -3.5527136788005e-014, 2.8956,   !- X,Y,Z Vertex 1 {m}
  4.572, -3.5527136788005e-014, 0,        !- X,Y,Z Vertex 2 {m}
  4.572, 4.57199999999996, 0,             !- X,Y,Z Vertex 3 {m}
  4.572, 4.57199999999996, 2.8956;        !- X,Y,Z Vertex 4 {m}

OS:Surface,
  {4ecb87a9-496a-47ef-95fc-4a4cf565d5aa}, !- Handle
  Surface 5,                              !- Name
  Wall,                                   !- Surface Type
  ,                                       !- Construction Name
  {fabaede1-0d12-4738-8801-b57fd642b349}, !- Space Name
  Outdoors,                               !- Outside Boundary Condition
  ,                                       !- Outside Boundary Condition Object
  SunExposed,                             !- Sun Exposure
  WindExposed,                            !- Wind Exposure
  ,                                       !- View Factor to Ground
  ,                                       !- Number of Vertices
  7.105427357601e-015, -3.5527136788005e-014, 2.8956, !- X,Y,Z Vertex 1 {m}
  7.105427357601e-015, -3.5527136788005e-014, 0, !- X,Y,Z Vertex 2 {m}
  4.572, -3.5527136788005e-014, 0,        !- X,Y,Z Vertex 3 {m}
  4.572, -3.5527136788005e-014, 2.8956;   !- X,Y,Z Vertex 4 {m}

OS:Surface,
  {fdf13f74-d788-42cc-aef1-7e82ea5b6e2e}, !- Handle
  Surface 6,                              !- Name
  RoofCeiling,                            !- Surface Type
  ,                                       !- Construction Name
  {fabaede1-0d12-4738-8801-b57fd642b349}, !- Space Name
  Adiabatic,                              !- Outside Boundary Condition
  ,                                       !- Outside Boundary Condition Object
  NoSun,                                  !- Sun Exposure
  NoWind,                                 !- Wind Exposure
  ,                                       !- View Factor to Ground
  ,                                       !- Number of Vertices
  4.572, -3.5527136788005e-014, 2.8956,   !- X,Y,Z Vertex 1 {m}
  4.572, 4.57199999999996, 2.8956,        !- X,Y,Z Vertex 2 {m}
  7.105427357601e-015, 4.57199999999996, 2.8956, !- X,Y,Z Vertex 3 {m}
  7.105427357601e-015, -3.5527136788005e-014, 2.8956; !- X,Y,Z Vertex 4 {m}

OS:ThermalZone,
  {d5bbff85-0043-491b-a32c-4f3008a4f77d}, !- Handle
  Zone Htl GuestRmOcc A end_a - Story Ground, !- Name
  1,                                      !- Multiplier
  ,                                       !- Ceiling Height {m}
  ,                                       !- Volume {m3}
  ,                                       !- Floor Area {m2}
  ,                                       !- Zone Inside Convection Algorithm
  ,                                       !- Zone Outside Convection Algorithm
  ,                                       !- Zone Conditioning Equipment List Name
  {c023d4f3-a60c-4f01-9d74-9548c9caa689}, !- Zone Air Inlet Port List
  {4697097c-aec0-4b53-b303-756a99d2ffe6}, !- Zone Air Exhaust Port List
  {9e1e9c6b-fdc3-4d4b-9b77-751dd0d0953f}, !- Zone Air Node Name
  {7f56f6d9-d1e2-4a4c-b115-41c7eb2a840f}, !- Zone Return Air Port List
  ,                                       !- Primary Daylighting Control Name
  ,                                       !- Fraction of Zone Controlled by Primary Daylighting Control
  ,                                       !- Secondary Daylighting Control Name
  ,                                       !- Fraction of Zone Controlled by Secondary Daylighting Control
  ,                                       !- Illuminance Map Name
  ,                                       !- Group Rendering Name
  ,                                       !- Thermostat Name
  No;                                     !- Use Ideal Air Loads

OS:Node,
  {ffb7a1c4-64ff-4a05-a2de-551d3ce1f508}, !- Handle
  Node 1,                                 !- Name
  {9e1e9c6b-fdc3-4d4b-9b77-751dd0d0953f}, !- Inlet Port
  ;                                       !- Outlet Port

OS:Connection,
  {9e1e9c6b-fdc3-4d4b-9b77-751dd0d0953f}, !- Handle
  {d40249af-7fe7-479f-9931-35f613c01b56}, !- Name
  {d5bbff85-0043-491b-a32c-4f3008a4f77d}, !- Source Object
  11,                                     !- Outlet Port
  {ffb7a1c4-64ff-4a05-a2de-551d3ce1f508}, !- Target Object
  2;                                      !- Inlet Port

OS:PortList,
  {c023d4f3-a60c-4f01-9d74-9548c9caa689}, !- Handle
  {1e176937-6921-4d1a-9b98-681b0f98e696}, !- Name
  {d5bbff85-0043-491b-a32c-4f3008a4f77d}; !- HVAC Component

OS:PortList,
  {4697097c-aec0-4b53-b303-756a99d2ffe6}, !- Handle
  {e858f2c4-f507-4ec8-b66b-8a81713949ba}, !- Name
  {d5bbff85-0043-491b-a32c-4f3008a4f77d}; !- HVAC Component

OS:PortList,
  {7f56f6d9-d1e2-4a4c-b115-41c7eb2a840f}, !- Handle
  {fdf2d6bd-e764-4d47-ab43-f54ca911016c}, !- Name
  {d5bbff85-0043-491b-a32c-4f3008a4f77d}; !- HVAC Component

OS:Sizing:Zone,
  {66511caf-7624-4550-b85e-9f121ddb07ca}, !- Handle
  {d5bbff85-0043-491b-a32c-4f3008a4f77d}, !- Zone or ZoneList Name
  SupplyAirTemperature,                   !- Zone Cooling Design Supply Air Temperature Input Method
  14,                                     !- Zone Cooling Design Supply Air Temperature {C}
  11.11,                                  !- Zone Cooling Design Supply Air Temperature Difference {deltaC}
  SupplyAirTemperature,                   !- Zone Heating Design Supply Air Temperature Input Method
  40,                                     !- Zone Heating Design Supply Air Temperature {C}
  11.11,                                  !- Zone Heating Design Supply Air Temperature Difference {deltaC}
  0.0085,                                 !- Zone Cooling Design Supply Air Humidity Ratio {kg-H2O/kg-air}
  0.008,                                  !- Zone Heating Design Supply Air Humidity Ratio {kg-H2O/kg-air}
  ,                                       !- Zone Heating Sizing Factor
  ,                                       !- Zone Cooling Sizing Factor
  DesignDay,                              !- Cooling Design Air Flow Method
  ,                                       !- Cooling Design Air Flow Rate {m3/s}
  ,                                       !- Cooling Minimum Air Flow per Zone Floor Area {m3/s-m2}
  ,                                       !- Cooling Minimum Air Flow {m3/s}
  ,                                       !- Cooling Minimum Air Flow Fraction
  DesignDay,                              !- Heating Design Air Flow Method
  ,                                       !- Heating Design Air Flow Rate {m3/s}
  ,                                       !- Heating Maximum Air Flow per Zone Floor Area {m3/s-m2}
  ,                                       !- Heating Maximum Air Flow {m3/s}
  ,                                       !- Heating Maximum Air Flow Fraction
  ,                                       !- Design Zone Air Distribution Effectiveness in Cooling Mode
  ,                                       !- Design Zone Air Distribution Effectiveness in Heating Mode
  No,                                     !- Account for Dedicated Outdoor Air System
  NeutralSupplyAir,                       !- Dedicated Outdoor Air System Control Strategy
  autosize,                               !- Dedicated Outdoor Air Low Setpoint Temperature for Design {C}
  autosize;                               !- Dedicated Outdoor Air High Setpoint Temperature for Design {C}

OS:ZoneHVAC:EquipmentList,
  {ae3da904-cd47-4961-96a4-15066a82eb80}, !- Handle
  Zone HVAC Equipment List 1,             !- Name
  {d5bbff85-0043-491b-a32c-4f3008a4f77d}; !- Thermal Zone

OS:Space,
  {ba5fefa6-4a03-4b7e-b98b-ca17de1d5830}, !- Handle
  Htl GuestRmOcc B end_a - Story Ground,  !- Name
  {edb4fcc7-9132-4d97-b72e-a6fd006ea574}, !- Space Type Name
  ,                                       !- Default Construction Set Name
  ,                                       !- Default Schedule Set Name
  -0,                                     !- Direction of Relative North {deg}
  -48.2028696581438,                      !- X Origin {m}
  -11.4956232193813,                      !- Y Origin {m}
  0,                                      !- Z Origin {m}
  {dafd44ab-df44-4633-9155-0fda9afa8fde}, !- Building Story Name
  {a246ec10-3a35-4702-91db-b4625365a4cd}; !- Thermal Zone Name

OS:Surface,
  {09a046ca-40f6-4e7a-90f9-c1edf54f3a02}, !- Handle
  Surface 7,                              !- Name
  Floor,                                  !- Surface Type
  ,                                       !- Construction Name
  {ba5fefa6-4a03-4b7e-b98b-ca17de1d5830}, !- Space Name
  Ground,                                 !- Outside Boundary Condition
  ,                                       !- Outside Boundary Condition Object
  NoSun,                                  !- Sun Exposure
  NoWind,                                 !- Wind Exposure
  ,                                       !- View Factor to Ground
  ,                                       !- Number of Vertices
  7.105427357601e-015, -3.5527136788005e-014, 0, !- X,Y,Z Vertex 1 {m}
  7.105427357601e-015, 22.9912464387626, 0, !- X,Y,Z Vertex 2 {m}
  4.572, 22.9912464387626, 0,             !- X,Y,Z Vertex 3 {m}
  4.572, -3.5527136788005e-014, 0;        !- X,Y,Z Vertex 4 {m}

OS:Surface,
  {f6221e00-05d2-4f8d-aaf6-314ea671cbb0}, !- Handle
  Surface 8,                              !- Name
  Wall,                                   !- Surface Type
  ,                                       !- Construction Name
  {ba5fefa6-4a03-4b7e-b98b-ca17de1d5830}, !- Space Name
  Outdoors,                               !- Outside Boundary Condition
  ,                                       !- Outside Boundary Condition Object
  SunExposed,                             !- Sun Exposure
  WindExposed,                            !- Wind Exposure
  ,                                       !- View Factor to Ground
  ,                                       !- Number of Vertices
  7.105427357601e-015, 22.9912464387626, 2.8956, !- X,Y,Z Vertex 1 {m}
  7.105427357601e-015, 22.9912464387626, 0, !- X,Y,Z Vertex 2 {m}
  7.105427357601e-015, -3.5527136788005e-014, 0, !- X,Y,Z Vertex 3 {m}
  7.105427357601e-015, -3.5527136788005e-014, 2.8956; !- X,Y,Z Vertex 4 {m}

OS:Surface,
  {01d7d9b3-f193-4d99-bc84-7ef40fb59d15}, !- Handle
  Surface 9,                              !- Name
  Wall,                                   !- Surface Type
  ,                                       !- Construction Name
  {ba5fefa6-4a03-4b7e-b98b-ca17de1d5830}, !- Space Name
  Surface,                                !- Outside Boundary Condition
  {2b718931-b66f-4bef-b928-257d6ab9abae}, !- Outside Boundary Condition Object
  NoSun,                                  !- Sun Exposure
  NoWind,                                 !- Wind Exposure
  ,                                       !- View Factor to Ground
  ,                                       !- Number of Vertices
  4.572, 22.9912464387626, 2.8956,        !- X,Y,Z Vertex 1 {m}
  4.572, 22.9912464387626, 0,             !- X,Y,Z Vertex 2 {m}
  7.105427357601e-015, 22.9912464387626, 0, !- X,Y,Z Vertex 3 {m}
  7.105427357601e-015, 22.9912464387626, 2.8956; !- X,Y,Z Vertex 4 {m}

OS:Surface,
  {9985102a-82e7-4e5f-89e4-6bcfc45bc18c}, !- Handle
  Surface 10,                             !- Name
  Wall,                                   !- Surface Type
  ,                                       !- Construction Name
  {ba5fefa6-4a03-4b7e-b98b-ca17de1d5830}, !- Space Name
  Surface,                                !- Outside Boundary Condition
  {7521690f-f48f-45b1-9003-fe2e24cce346}, !- Outside Boundary Condition Object
  NoSun,                                  !- Sun Exposure
  NoWind,                                 !- Wind Exposure
  ,                                       !- View Factor to Ground
  ,                                       !- Number of Vertices
  4.572, -3.5527136788005e-014, 2.8956,   !- X,Y,Z Vertex 1 {m}
  4.572, -3.5527136788005e-014, 0,        !- X,Y,Z Vertex 2 {m}
  4.572, 22.9912464387626, 0,             !- X,Y,Z Vertex 3 {m}
  4.572, 22.9912464387626, 2.8956;        !- X,Y,Z Vertex 4 {m}

OS:Surface,
  {8926be5c-6115-49c4-91da-80eeae25e30c}, !- Handle
  Surface 11,                             !- Name
  Wall,                                   !- Surface Type
  ,                                       !- Construction Name
  {ba5fefa6-4a03-4b7e-b98b-ca17de1d5830}, !- Space Name
  Surface,                                !- Outside Boundary Condition
  {95c6b867-e824-4290-8d4b-5fe6ca8f4492}, !- Outside Boundary Condition Object
  NoSun,                                  !- Sun Exposure
  NoWind,                                 !- Wind Exposure
  ,                                       !- View Factor to Ground
  ,                                       !- Number of Vertices
  7.105427357601e-015, -3.5527136788005e-014, 2.8956, !- X,Y,Z Vertex 1 {m}
  7.105427357601e-015, -3.5527136788005e-014, 0, !- X,Y,Z Vertex 2 {m}
  4.572, -3.5527136788005e-014, 0,        !- X,Y,Z Vertex 3 {m}
  4.572, -3.5527136788005e-014, 2.8956;   !- X,Y,Z Vertex 4 {m}

OS:Surface,
  {6eb1d36b-e23c-460f-aee4-f0e957da84c6}, !- Handle
  Surface 12,                             !- Name
  RoofCeiling,                            !- Surface Type
  ,                                       !- Construction Name
  {ba5fefa6-4a03-4b7e-b98b-ca17de1d5830}, !- Space Name
  Adiabatic,                              !- Outside Boundary Condition
  ,                                       !- Outside Boundary Condition Object
  NoSun,                                  !- Sun Exposure
  NoWind,                                 !- Wind Exposure
  ,                                       !- View Factor to Ground
  ,                                       !- Number of Vertices
  4.572, -3.5527136788005e-014, 2.8956,   !- X,Y,Z Vertex 1 {m}
  4.572, 22.9912464387626, 2.8956,        !- X,Y,Z Vertex 2 {m}
  7.105427357601e-015, 22.9912464387626, 2.8956, !- X,Y,Z Vertex 3 {m}
  7.105427357601e-015, -3.5527136788005e-014, 2.8956; !- X,Y,Z Vertex 4 {m}

OS:ThermalZone,
  {a246ec10-3a35-4702-91db-b4625365a4cd}, !- Handle
  Zone Htl GuestRmOcc B end_a - Story Ground, !- Name
  1,                                      !- Multiplier
  ,                                       !- Ceiling Height {m}
  ,                                       !- Volume {m3}
  ,                                       !- Floor Area {m2}
  ,                                       !- Zone Inside Convection Algorithm
  ,                                       !- Zone Outside Convection Algorithm
  ,                                       !- Zone Conditioning Equipment List Name
  {74fb9e61-d4cd-489f-bb47-72b9e58925fc}, !- Zone Air Inlet Port List
  {5a671dc6-a83d-4f73-967a-bdb4b19488fc}, !- Zone Air Exhaust Port List
  {a3b2dfe8-1af9-4984-8441-10a8ebf44212}, !- Zone Air Node Name
  {b2ec82f3-bb78-4421-8bba-f2c2201e7367}, !- Zone Return Air Port List
  ,                                       !- Primary Daylighting Control Name
  ,                                       !- Fraction of Zone Controlled by Primary Daylighting Control
  ,                                       !- Secondary Daylighting Control Name
  ,                                       !- Fraction of Zone Controlled by Secondary Daylighting Control
  ,                                       !- Illuminance Map Name
  ,                                       !- Group Rendering Name
  ,                                       !- Thermostat Name
  No;                                     !- Use Ideal Air Loads

OS:Node,
  {0af7a571-c939-4b10-a145-0a513b5845c3}, !- Handle
  Node 2,                                 !- Name
  {a3b2dfe8-1af9-4984-8441-10a8ebf44212}, !- Inlet Port
  ;                                       !- Outlet Port

OS:Connection,
  {a3b2dfe8-1af9-4984-8441-10a8ebf44212}, !- Handle
  {4de44e71-2b7d-4653-be96-33d7b57871e7}, !- Name
  {a246ec10-3a35-4702-91db-b4625365a4cd}, !- Source Object
  11,                                     !- Outlet Port
  {0af7a571-c939-4b10-a145-0a513b5845c3}, !- Target Object
  2;                                      !- Inlet Port

OS:PortList,
  {74fb9e61-d4cd-489f-bb47-72b9e58925fc}, !- Handle
  {ca2c0595-5fb6-4bbf-8b18-d10f6b9bf303}, !- Name
  {a246ec10-3a35-4702-91db-b4625365a4cd}; !- HVAC Component

OS:PortList,
  {5a671dc6-a83d-4f73-967a-bdb4b19488fc}, !- Handle
  {1e5fc650-ef53-4753-b877-19d4ee518918}, !- Name
  {a246ec10-3a35-4702-91db-b4625365a4cd}; !- HVAC Component

OS:PortList,
  {b2ec82f3-bb78-4421-8bba-f2c2201e7367}, !- Handle
  {ddd25296-b7c9-42de-b754-7656996bc08b}, !- Name
  {a246ec10-3a35-4702-91db-b4625365a4cd}; !- HVAC Component

OS:Sizing:Zone,
  {03e46f27-73c1-41da-bf5a-30c0d14b18f7}, !- Handle
  {a246ec10-3a35-4702-91db-b4625365a4cd}, !- Zone or ZoneList Name
  SupplyAirTemperature,                   !- Zone Cooling Design Supply Air Temperature Input Method
  14,                                     !- Zone Cooling Design Supply Air Temperature {C}
  11.11,                                  !- Zone Cooling Design Supply Air Temperature Difference {deltaC}
  SupplyAirTemperature,                   !- Zone Heating Design Supply Air Temperature Input Method
  40,                                     !- Zone Heating Design Supply Air Temperature {C}
  11.11,                                  !- Zone Heating Design Supply Air Temperature Difference {deltaC}
  0.0085,                                 !- Zone Cooling Design Supply Air Humidity Ratio {kg-H2O/kg-air}
  0.008,                                  !- Zone Heating Design Supply Air Humidity Ratio {kg-H2O/kg-air}
  ,                                       !- Zone Heating Sizing Factor
  ,                                       !- Zone Cooling Sizing Factor
  DesignDay,                              !- Cooling Design Air Flow Method
  ,                                       !- Cooling Design Air Flow Rate {m3/s}
  ,                                       !- Cooling Minimum Air Flow per Zone Floor Area {m3/s-m2}
  ,                                       !- Cooling Minimum Air Flow {m3/s}
  ,                                       !- Cooling Minimum Air Flow Fraction
  DesignDay,                              !- Heating Design Air Flow Method
  ,                                       !- Heating Design Air Flow Rate {m3/s}
  ,                                       !- Heating Maximum Air Flow per Zone Floor Area {m3/s-m2}
  ,                                       !- Heating Maximum Air Flow {m3/s}
  ,                                       !- Heating Maximum Air Flow Fraction
  ,                                       !- Design Zone Air Distribution Effectiveness in Cooling Mode
  ,                                       !- Design Zone Air Distribution Effectiveness in Heating Mode
  No,                                     !- Account for Dedicated Outdoor Air System
  NeutralSupplyAir,                       !- Dedicated Outdoor Air System Control Strategy
  autosize,                               !- Dedicated Outdoor Air Low Setpoint Temperature for Design {C}
  autosize;                               !- Dedicated Outdoor Air High Setpoint Temperature for Design {C}

OS:ZoneHVAC:EquipmentList,
  {979b4db1-4579-47c6-a43d-0a27423dab88}, !- Handle
  Zone HVAC Equipment List 2,             !- Name