
OS:Version,
  {2481d772-79a4-47b3-bcb5-cf7808a40763}, !- Handle
  2.7.0;                                  !- Version Identifier

OS:SpaceType,
  {365bf7e3-43f7-412a-9c75-1a42da09150c}, !- Handle
  MBT CompRoomData,                       !- Name
  ,                                       !- Default Construction Set Name
  ,                                       !- Default Schedule Set Name
  ,                                       !- Group Rendering Name
  ,                                       !- Design Specification Outdoor Air Object Name
  ,                                       !- Standards Template
  MBT,                                    !- Standards Building Type
  CompRoomData;                           !- Standards Space Type

OS:SpaceType,
  {83ffe72e-5fe5-4a27-9bbc-f88152053d99}, !- Handle
  MBT Laboratory,                         !- Name
  ,                                       !- Default Construction Set Name
  ,                                       !- Default Schedule Set Name
  ,                                       !- Group Rendering Name
  ,                                       !- Design Specification Outdoor Air Object Name
  ,                                       !- Standards Template
  MBT,                                    !- Standards Building Type
  Laboratory;                             !- Standards Space Type

OS:SpaceType,
  {b135d7ec-9365-44a5-9424-8de7d6deb885}, !- Handle
  MBT CorridorStairway,                   !- Name
  ,                                       !- Default Construction Set Name
  ,                                       !- Default Schedule Set Name
  ,                                       !- Group Rendering Name
  ,                                       !- Design Specification Outdoor Air Object Name
  ,                                       !- Standards Template
  MBT,                                    !- Standards Building Type
  CorridorStairway;                       !- Standards Space Type

OS:SpaceType,
  {882e4660-6cf9-4cfb-a851-07c678ab95c3}, !- Handle
  MBT Conference,                         !- Name
  ,                                       !- Default Construction Set Name
  ,                                       !- Default Schedule Set Name
  ,                                       !- Group Rendering Name
  ,                                       !- Design Specification Outdoor Air Object Name
  ,                                       !- Standards Template
  MBT,                                    !- Standards Building Type
  Conference;                             !- Standards Space Type

OS:SpaceType,
  {6a7decdd-df9b-4bee-a06a-5a57ab058e4c}, !- Handle
  MBT Dining,                             !- Name
  ,                                       !- Default Construction Set Name
  ,                                       !- Default Schedule Set Name
  ,                                       !- Group Rendering Name
  ,                                       !- Design Specification Outdoor Air Object Name
  ,                                       !- Standards Template
  MBT,                                    !- Standards Building Type
  Dining;                                 !- Standards Space Type

OS:SpaceType,
  {3c428376-3251-4e49-8a84-ebb67151d256}, !- Handle
  MBT OfficeOpen,                         !- Name
  ,                                       !- Default Construction Set Name
  ,                                       !- Default Schedule Set Name
  ,                                       !- Group Rendering Name
  ,                                       !- Design Specification Outdoor Air Object Name
  ,                                       !- Standards Template
  MBT,                                    !- Standards Building Type
  OfficeOpen;                             !- Standards Space Type

OS:SpaceType,
  {60068b72-ea34-483b-b13d-6b2c6b07a58f}, !- Handle
  MBT Kitchen,                            !- Name
  ,                                       !- Default Construction Set Name
  ,                                       !- Default Schedule Set Name
  ,                                       !- Group Rendering Name
  ,                                       !- Design Specification Outdoor Air Object Name
  ,                                       !- Standards Template
  MBT,                                    !- Standards Building Type
  Kitchen;                                !- Standards Space Type

OS:Building,
  {f5e3da05-34a0-4192-a1b8-33e772b2a278}, !- Handle
  DEER Pre-1975|MBT,                      !- Name
  ,                                       !- Building Sector Type
  ,                                       !- North Axis {deg}
  ,                                       !- Nominal Floor to Floor Height {m}
  ,                                       !- Space Type Name
  ,                                       !- Default Construction Set Name
  ;                                       !- Default Schedule Set Name

OS:Site,
  {70f4ecf7-71d6-4024-b66e-aac4d235775c}, !- Handle
  Site 1,                                 !- Name
  ,                                       !- Latitude {deg}
  ,                                       !- Longitude {deg}
  ,                                       !- Time Zone {hr}
  ,                                       !- Elevation {m}
  ;                                       !- Terrain

OS:BuildingStory,
  {724aaebe-d832-4795-8216-47ad900eea2a}, !- Handle
  Story Ground,                           !- Name
  0,                                      !- Nominal Z Coordinate {m}
  4.572,                                  !- Nominal Floor to Floor Height {m}
  ,                                       !- Default Construction Set Name
  ,                                       !- Default Schedule Set Name
  ;                                       !- Group Rendering Name

OS:Space,
  {3e69027b-38da-4a9d-9138-52c93dc6e859}, !- Handle
  MBT Laboratory A end_a - Story Ground,  !- Name
  {83ffe72e-5fe5-4a27-9bbc-f88152053d99}, !- Space Type Name
  ,                                       !- Default Construction Set Name
  ,                                       !- Default Schedule Set Name
  -0,                                     !- Direction of Relative North {deg}
  -222.928045586911,                      !- X Origin {m}
  -20.8343967838235,                      !- Y Origin {m}
  0,                                      !- Z Origin {m}
  {724aaebe-d832-4795-8216-47ad900eea2a}, !- Building Story Name
  {215cee04-900b-48ba-af0f-9ec2987adb4a}; !- Thermal Zone Name

OS:Surface,
  {ddcf0b86-2e0c-48e9-b8a0-4bf8790f7932}, !- Handle
  Surface 1,                              !- Name
  Floor,                                  !- Surface Type
  ,                                       !- Construction Name
  {3e69027b-38da-4a9d-9138-52c93dc6e859}, !- Space Name
  Ground,                                 !- Outside Boundary Condition
  ,                                       !- Outside Boundary Condition Object
  NoSun,                                  !- Sun Exposure
  NoWind,                                 !- Wind Exposure
  ,                                       !- View Factor to Ground
  ,                                       !- Number of Vertices
  3.12638803734444e-013, -1.4210854715202e-014, 0, !- X,Y,Z Vertex 1 {m}
  3.12638803734444e-013, 4.57199999999999, 0, !- X,Y,Z Vertex 2 {m}
  4.57200000000032, 4.57199999999999, 0,  !- X,Y,Z Vertex 3 {m}
  4.57200000000032, -1.4210854715202e-014, 0; !- X,Y,Z Vertex 4 {m}

OS:Surface,
  {1185f71d-dc1d-4dbb-9bef-beaf94dc2b69}, !- Handle
  Surface 2,                              !- Name
  Wall,                                   !- Surface Type
  ,                                       !- Construction Name
  {3e69027b-38da-4a9d-9138-52c93dc6e859}, !- Space Name
  Outdoors,                               !- Outside Boundary Condition
  ,                                       !- Outside Boundary Condition Object
  SunExposed,                             !- Sun Exposure
  WindExposed,                            !- Wind Exposure
  ,                                       !- View Factor to Ground
  ,                                       !- Number of Vertices
  3.12638803734444e-013, 4.57199999999999, 4.572, !- X,Y,Z Vertex 1 {m}
  3.12638803734444e-013, 4.57199999999999, 0, !- X,Y,Z Vertex 2 {m}
  3.12638803734444e-013, -1.4210854715202e-014, 0, !- X,Y,Z Vertex 3 {m}
  3.12638803734444e-013, -1.4210854715202e-014, 4.572; !- X,Y,Z Vertex 4 {m}

OS:Surface,
  {11af141a-bd71-4299-a9e9-2d2d230ce9c9}, !- Handle
  Surface 3,                              !- Name
  Wall,                                   !- Surface Type
  ,                                       !- Construction Name
  {3e69027b-38da-4a9d-9138-52c93dc6e859}, !- Space Name
  Surface,                                !- Outside Boundary Condition
  {774ae1a4-1387-4530-8b8a-c9217bc06141}, !- Outside Boundary Condition Object
  NoSun,                                  !- Sun Exposure
  NoWind,                                 !- Wind Exposure
  ,                                       !- View Factor to Ground
  ,                                       !- Number of Vertices
  4.57200000000032, 4.57199999999999, 4.572, !- X,Y,Z Vertex 1 {m}
  4.57200000000032, 4.57199999999999, 0,  !- X,Y,Z Vertex 2 {m}
  3.12638803734444e-013, 4.57199999999999, 0, !- X,Y,Z Vertex 3 {m}
  3.12638803734444e-013, 4.57199999999999, 4.572; !- X,Y,Z Vertex 4 {m}

OS:Surface,
  {e2924c91-104a-46de-825d-e28dcc172d9c}, !- Handle
  Surface 4,                              !- Name
  Wall,                                   !- Surface Type
  ,                                       !- Construction Name
  {3e69027b-38da-4a9d-9138-52c93dc6e859}, !- Space Name
  Surface,                                !- Outside Boundary Condition
  {548cbe3b-3b51-4722-a750-5d692a42e59c}, !- Outside Boundary Condition Object
  NoSun,                                  !- Sun Exposure
  NoWind,                                 !- Wind Exposure
  ,                                       !- View Factor to Ground
  ,                                       !- Number of Vertices
  4.57200000000032, -1.4210854715202e-014, 4.572, !- X,Y,Z Vertex 1 {m}
  4.57200000000032, -1.4210854715202e-014, 0, !- X,Y,Z Vertex 2 {m}
  4.57200000000032, 4.57199999999999, 0,  !- X,Y,Z Vertex 3 {m}
  4.57200000000032, 4.57199999999999, 4.572; !- X,Y,Z Vertex 4 {m}

OS:Surface,
  {e30270b6-dc2c-4125-86b9-a34548989075}, !- Handle
  Surface 5,                              !- Name
  Wall,                                   !- Surface Type
  ,                                       !- Construction Name
  {3e69027b-38da-4a9d-9138-52c93dc6e859}, !- Space Name
  Outdoors,                               !- Outside Boundary Condition
  ,                                       !- Outside Boundary Condition Object
  SunExposed,                             !- Sun Exposure
  WindExposed,                            !- Wind Exposure
  ,                                       !- View Factor to Ground
  ,                                       !- Number of Vertices
  3.12638803734444e-013, -1.4210854715202e-014, 4.572, !- X,Y,Z Vertex 1 {m}
  3.12638803734444e-013, -1.4210854715202e-014, 0, !- X,Y,Z Vertex 2 {m}
  4.57200000000032, -1.4210854715202e-014, 0, !- X,Y,Z Vertex 3 {m}
  4.57200000000032, -1.4210854715202e-014, 4.572; !- X,Y,Z Vertex 4 {m}

OS:Surface,
  {95b72a4d-d420-4520-b095-3a77db103d2f}, !- Handle
  Surface 6,                              !- Name
  RoofCeiling,                            !- Surface Type
  ,                                       !- Construction Name
  {3e69027b-38da-4a9d-9138-52c93dc6e859}, !- Space Name
  Outdoors,                               !- Outside Boundary Condition
  ,                                       !- Outside Boundary Condition Object
  SunExposed,                             !- Sun Exposure
  WindExposed,                            !- Wind Exposure
  ,                                       !- View Factor to Ground
  ,                                       !- Number of Vertices
  4.57200000000032, -1.4210854715202e-014, 4.572, !- X,Y,Z Vertex 1 {m}
  4.57200000000032, 4.57199999999999, 4.572, !- X,Y,Z Vertex 2 {m}
  3.12638803734444e-013, 4.57199999999999, 4.572, !- X,Y,Z Vertex 3 {m}
  3.12638803734444e-013, -1.4210854715202e-014, 4.572; !- X,Y,Z Vertex 4 {m}

OS:ThermalZone,
  {215cee04-900b-48ba-af0f-9ec2987adb4a}, !- Handle
  Zone MBT Laboratory A end_a - Story Ground, !- Name
  1,                                      !- Multiplier
  ,                                       !- Ceiling Height {m}
  ,                                       !- Volume {m3}
  ,                                       !- Floor Area {m2}
  ,                                       !- Zone Inside Convection Algorithm
  ,                                       !- Zone Outside Convection Algorithm
  ,                                       !- Zone Conditioning Equipment List Name
  {b8116a72-d09f-4524-a0ec-988c6c6d7060}, !- Zone Air Inlet Port List
  {3fae2955-3c53-4807-bbeb-a50aabe448c1}, !- Zone Air Exhaust Port List
  {b07364f9-40fd-4e8c-918b-1eb348b89687}, !- Zone Air Node Name
  {736ca8e5-3ed1-4260-a2b3-37e2bf98ce1a}, !- Zone Return Air Port List
  ,                                       !- Primary Daylighting Control Name
  ,                                       !- Fraction of Zone Controlled by Primary Daylighting Control
  ,                                       !- Secondary Daylighting Control Name
  ,                                       !- Fraction of Zone Controlled by Secondary Daylighting Control
  ,                                       !- Illuminance Map Name
  ,                                       !- Group Rendering Name
  ,                                       !- Thermostat Name
  No;                                     !- Use Ideal Air Loads

OS:Node,
  {15944230-ad27-48c3-92ee-75456918f7d2}, !- Handle
  Node 1,                                 !- Name
  {b07364f9-40fd-4e8c-918b-1eb348b89687}, !- Inlet Port
  ;                                       !- Outlet Port

OS:Connection,
  {b07364f9-40fd-4e8c-918b-1eb348b89687}, !- Handle
  {859af01c-8352-4efd-95bc-b2cd8d3b2bb4}, !- Name
  {215cee04-900b-48ba-af0f-9ec2987adb4a}, !- Source Object
  11,                                     !- Outlet Port
  {15944230-ad27-48c3-92ee-75456918f7d2}, !- Target Object
  2;                                      !- Inlet Port

OS:PortList,
  {b8116a72-d09f-4524-a0ec-988c6c6d7060}, !- Handle
  {03f20955-2c75-406e-ae5f-5ca74dd344af}, !- Name
  {215cee04-900b-48ba-af0f-9ec2987adb4a}; !- HVAC Component

OS:PortList,
  {3fae2955-3c53-4807-bbeb-a50aabe448c1}, !- Handle
  {21af2a20-bba7-4a8a-869a-2cd1bce9d883}, !- Name
  {215cee04-900b-48ba-af0f-9ec2987adb4a}; !- HVAC Component

OS:PortList,
  {736ca8e5-3ed1-4260-a2b3-37e2bf98ce1a}, !- Handle
  {89f6f957-21f3-4e9b-b91e-c950d6be853b}, !- Name
  {215cee04-900b-48ba-af0f-9ec2987adb4a}; !- HVAC Component

OS:Sizing:Zone,
  {c4830d29-d1eb-48b4-a43f-f438f51ed8db}, !- Handle
  {215cee04-900b-48ba-af0f-9ec2987adb4a}, !- Zone or ZoneList Name
  SupplyAirTemperature,                   !- Zone Cooling Design Supply Air Temperature Input Method
  14,                                     !- Zone Cooling Design Supply Air Temperature {C}
  11.11,                                  !- Zone Cooling Design Supply Air Temperature Difference {deltaC}
  SupplyAirTemperature,                   !- Zone Heating Design Supply Air Temperature Input Method
  40,                                     !- Zone Heating Design Supply Air Temperature {C}
  11.11,                                  !- Zone Heating Design Supply Air Temperature Difference {deltaC}
  0.0085,                                 !- Zone Cooling Design Supply Air Humidity Ratio {kg-H2O/kg-air}
  0.008,                                  !- Zone Heating Design Supply Air Humidity Ratio {kg-H2O/kg-air}
  ,                                       !- Zone Heating Sizing Factor
  ,                                       !- Zone Cooling Sizing Factor
  DesignDay,                              !- Cooling Design Air Flow Method
  ,                                       !- Cooling Design Air Flow Rate {m3/s}
  ,                                       !- Cooling Minimum Air Flow per Zone Floor Area {m3/s-m2}
  ,                                       !- Cooling Minimum Air Flow {m3/s}
  ,                                       !- Cooling Minimum Air Flow Fraction
  DesignDay,                              !- Heating Design Air Flow Method
  ,                                       !- Heating Design Air Flow Rate {m3/s}
  ,                                       !- Heating Maximum Air Flow per Zone Floor Area {m3/s-m2}
  ,                                       !- Heating Maximum Air Flow {m3/s}
  ,                                       !- Heating Maximum Air Flow Fraction
  ,                                       !- Design Zone Air Distribution Effectiveness in Cooling Mode
  ,                                       !- Design Zone Air Distribution Effectiveness in Heating Mode
  No,                                     !- Account for Dedicated Outdoor Air System
  NeutralSupplyAir,                       !- Dedicated Outdoor Air System Control Strategy
  autosize,                               !- Dedicated Outdoor Air Low Setpoint Temperature for Design {C}
  autosize;                               !- Dedicated Outdoor Air High Setpoint Temperature for Design {C}

OS:ZoneHVAC:EquipmentList,
  {5915bed8-7d78-42a4-bed1-d21eb7ad4fd2}, !- Handle
  Zone HVAC Equipment List 1,             !- Name
  {215cee04-900b-48ba-af0f-9ec2987adb4a}; !- Thermal Zone

OS:Space,
  {970c9a32-98b7-42fe-95e1-c91ef8975208}, !- Handle
  MBT Laboratory B end_a - Story Ground,  !- Name
  {83ffe72e-5fe5-4a27-9bbc-f88152053d99}, !- Space Type Name
  ,                                       !- Default Construction Set Name
  ,                                       !- Default Schedule Set Name
  -0,                                     !- Direction of Relative North {deg}
  -222.928045586911,                      !- X Origin {m}
  -16.2623967838235,                      !- Y Origin {m}
  0,                                      !- Z Origin {m}
  {724aaebe-d832-4795-8216-47ad900eea2a}, !- Building Story Name
  {9f422e3e-6cdb-43e6-bdcc-7cdc314a2868}; !- Thermal Zone Name

OS:Surface,
  {083a7f57-d97f-45a3-b4ed-0fe3688c1aa4}, !- Handle
  Surface 7,                              !- Name
  Floor,                                  !- Surface Type
  ,                                       !- Construction Name
  {970c9a32-98b7-42fe-95e1-c91ef8975208}, !- Space Name
  Ground,                                 !- Outside Boundary Condition
  ,                                       !- Outside Boundary Condition Object
  NoSun,                                  !- Sun Exposure
  NoWind,                                 !- Wind Exposure
  ,                                       !- View Factor to Ground
  ,                                       !- Number of Vertices
  3.12638803734444e-013, -1.4210854715202e-014, 0, !- X,Y,Z Vertex 1 {m}
  3.12638803734444e-013, 32.524793567647, 0, !- X,Y,Z Vertex 2 {m}
  4.57200000000032, 32.524793567647, 0,   !- X,Y,Z Vertex 3 {m}
  4.57200000000032, -1.4210854715202e-014, 0; !- X,Y,Z Vertex 4 {m}

OS:Surface,
  {91df2bdf-a4f4-4256-9f8b-a1c09f1ccd4c}, !- Handle
  Surface 8,                              !- Name
  Wall,                                   !- Surface Type
  ,                                       !- Construction Name
  {970c9a32-98b7-42fe-95e1-c91ef8975208}, !- Space Name
  Outdoors,                               !- Outside Boundary Condition
  ,                                       !- Outside Boundary Condition Object
  SunExposed,                             !- Sun Exposure
  WindExposed,                            !- Wind Exposure
  ,                                       !- View Factor to Ground
  ,                                       !- Number of Vertices
  3.12638803734444e-013, 32.524793567647, 4.572, !- X,Y,Z Vertex 1 {m}
  3.12638803734444e-013, 32.524793567647, 0, !- X,Y,Z Vertex 2 {m}
  3.12638803734444e-013, -1.4210854715202e-014, 0, !- X,Y,Z Vertex 3 {m}
  3.12638803734444e-013, -1.4210854715202e-014, 4.572; !- X,Y,Z Vertex 4 {m}

OS:Surface,
  {ef5d7608-ddb2-49a8-ae65-8fea30fa8fb1}, !- Handle
  Surface 9,                              !- Name
  Wall,                                   !- Surface Type
  ,                                       !- Construction Name
  {970c9a32-98b7-42fe-95e1-c91ef8975208}, !- Space Name
  Surface,                                !- Outside Boundary Condition
  {cf5d62d5-ad7b-4f60-b065-eaa53b0c8695}, !- Outside Boundary Condition Object
  NoSun,                                  !- Sun Exposure
  NoWind,                                 !- Wind Exposure
  ,                                       !- View Factor to Ground
  ,                                       !- Number of Vertices
  4.57200000000032, 32.524793567647, 4.572, !- X,Y,Z Vertex 1 {m}
  4.57200000000032, 32.524793567647, 0,   !- X,Y,Z Vertex 2 {m}
  3.12638803734444e-013, 32.524793567647, 0, !- X,Y,Z Vertex 3 {m}
  3.12638803734444e-013, 32.524793567647, 4.572; !- X,Y,Z Vertex 4 {m}

OS:Surface,
  {7e185bbb-dbef-4435-98b6-195046289bf3}, !- Handle
  Surface 10,                             !- Name
  Wall,                                   !- Surface Type
  ,                                       !- Construction Name
  {970c9a32-98b7-42fe-95e1-c91ef8975208}, !- Space Name
  Surface,                                !- Outside Boundary Condition
  {d7e19c6d-df29-4b76-860e-c16d02c505cf}, !- Outside Boundary Condition Object
  NoSun,                                  !- Sun Exposure
  NoWind,                                 !- Wind Exposure
  ,                                       !- View Factor to Ground
  ,                                       !- Number of Vertices
  4.57200000000032, -1.4210854715202e-014, 4.572, !- X,Y,Z Vertex 1 {m}
  4.57200000000032, -1.4210854715202e-014, 0, !- X,Y,Z Vertex 2 {m}
  4.57200000000032, 32.524793567647, 0,   !- X,Y,Z Vertex 3 {m}
  4.57200000000032, 32.524793567647, 4.572; !- X,Y,Z Vertex 4 {m}

OS:Surface,
  {774ae1a4-1387-4530-8b8a-c9217bc06141}, !- Handle
  Surface 11,                             !- Name
  Wall,                                   !- Surface Type
  ,                                       !- Construction Name
  {970c9a32-98b7-42fe-95e1-c91ef8975208}, !- Space Name
  Surface,                                !- Outside Boundary Condition
  {11af141a-bd71-4299-a9e9-2d2d230ce9c9}, !- Outside Boundary Condition Object
  NoSun,                                  !- Sun Exposure
  NoWind,                                 !- Wind Exposure
  ,                                       !- View Factor to Ground
  ,                                       !- Number of Vertices
  3.12638803734444e-013, -1.4210854715202e-014, 4.572, !- X,Y,Z Vertex 1 {m}
  3.12638803734444e-013, -1.4210854715202e-014, 0, !- X,Y,Z Vertex 2 {m}
  4.57200000000032, -1.4210854715202e-014, 0, !- X,Y,Z Vertex 3 {m}
  4.57200000000032, -1.4210854715202e-014, 4.572; !- X,Y,Z Vertex 4 {m}

OS:Surface,
  {e020de96-f0b1-4217-bbb9-97d93555f9d6}, !- Handle
  Surface 12,                             !- Name
  RoofCeiling,                            !- Surface Type
  ,                                       !- Construction Name
  {970c9a32-98b7-42fe-95e1-c91ef8975208}, !- Space Name
  Outdoors,                               !- Outside Boundary Condition
  ,                                       !- Outside Boundary Condition Object
  SunExposed,                             !- Sun Exposure
  WindExposed,                            !- Wind Exposure
  ,                                       !- View Factor to Ground
  ,                                       !- Number of Vertices
  4.57200000000032, -1.4210854715202e-014, 4.572, !- X,Y,Z Vertex 1 {m}
  4.57200000000032, 32.524793567647, 4.572, !- X,Y,Z Vertex 2 {m}
  3.12638803734444e-013, 32.524793567647, 4.572, !- X,Y,Z Vertex 3 {m}
  3.12638803734444e-013, -1.4210854715202e-014, 4.572; !- X,Y,Z Vertex 4 {m}

OS:ThermalZone,
  {9f422e3e-6cdb-43e6-bdcc-7cdc314a2868}, !- Handle
  Zone MBT Laboratory B end_a - Story Ground, !- Name
  1,                                      !- Multiplier
  ,                                       !- Ceiling Height {m}
  ,                                       !- Volume {m3}
  ,                                       !- Floor Area {m2}
  ,                                       !- Zone Inside Convection Algorithm
  ,                                       !- Zone Outside Convection Algorithm
  ,                                       !- Zone Conditioning Equipment List Name
  {c90a247b-9d99-4114-af3b-70a2b3e8fc7c}, !- Zone Air Inlet Port List
  {b5b78d96-7a92-4e02-ae2d-feee25320182}, !- Zone Air Exhaust Port List
  {0012bfdc-77c2-45f1-aff4-7384bffbd1b4}, !- Zone Air Node Name
  {804bdf44-49fb-4b43-ba0f-ddd32b9189a0}, !- Zone Return Air Port List
  ,                                       !- Primary Daylighting Control Name
  ,                                       !- Fraction of Zone Controlled by Primary Daylighting Control
  ,                                       !- Secondary Daylighting Control Name
  ,                                       !- Fraction of Zone Controlled by Secondary Daylighting Control
  ,                                       !- Illuminance Map Name
  ,                                       !- Group Rendering Name
  ,                                       !- Thermostat Name
  No;                                     !- Use Ideal Air Loads

OS:Node,
  {0ef5914d-e18a-4469-882f-309df3468515}, !- Handle
  Node 2,                                 !- Name
  {0012bfdc-77c2-45f1-aff4-7384bffbd1b4}, !- Inlet Port
  ;                                       !- Outlet Port

OS:Connection,
  {0012bfdc-77c2-45f1-aff4-7384bffbd1b4}, !- Handle
  {c5296329-a488-4499-aaef-ce9eb60c846c}, !- Name
  {9f422e3e-6cdb-43e6-bdcc-7cdc314a2868}, !- Source Object
  11,                                     !- Outlet Port
  {0ef5914d-e18a-4469-882f-309df3468515}, !- Target Object
  2;                                      !- Inlet Port

OS:PortList,
  {c90a247b-9d99-4114-af3b-70a2b3e8fc7c}, !- Handle
  {c1f10256-d400-4d84-b4a9-315fb9af0abe}, !- Name
  {9f422e3e-6cdb-43e6-bdcc-7cdc314a2868}; !- HVAC Component

OS:PortList,
  {b5b78d96-7a92-4e02-ae2d-feee25320182}, !- Handle
  {59c09959-764e-4c40-bde0-c246f4adb327}, !- Name
  {9f422e3e-6cdb-43e6-bdcc-7cdc314a2868}; !- HVAC Component

OS:PortList,
  {804bdf44-49fb-4b43-ba0f-ddd32b9189a0}, !- Handle
  {977266ac-24cd-433a-ba14-90908eed4438}, !- Name
  {9f422e3e-6cdb-43e6-bdcc-7cdc314a2868}; !- HVAC Component

OS:Sizing:Zone,
  {a4c57d9c-762f-4176-a3b1-1c607a13090b}, !- Handle
  {9f422e3e-6cdb-43e6-bdcc-7cdc314a2868}, !- Zone or ZoneList Name
  SupplyAirTemperature,                   !- Zone Cooling Design Supply Air Temperature Input Method
  14,                                     !- Zone Cooling Design Supply Air Temperature {C}
  11.11,                                  !- Zone Cooling Design Supply Air Temperature Difference {deltaC}
  SupplyAirTemperature,                   !- Zone Heating Design Supply Air Temperature Input Method
  40,                                     !- Zone Heating Design Supply Air Temperature {C}
  11.11,                                  !- Zone Heating Design Supply Air Temperature Difference {deltaC}
  0.0085,                                 !- Zone Cooling Design Supply Air Humidity Ratio {kg-H2O/kg-air}
  0.008,                                  !- Zone Heating Design Supply Air Humidity Ratio {kg-H2O/kg-air}
  ,                                       !- Zone Heating Sizing Factor
  ,                                       !- Zone Cooling Sizing Factor
  DesignDay,                              !- Cooling Design Air Flow Method
  ,                                       !- Cooling Design Air Flow Rate {m3/s}
  ,                                       !- Cooling Minimum Air Flow per Zone Floor Area {m3/s-m2}
  ,                                       !- Cooling Minimum Air Flow {m3/s}
  ,                                       !- Cooling Minimum Air Flow Fraction
  DesignDay,                              !- Heating Design Air Flow Method
  ,                                       !- Heating Design Air Flow Rate {m3/s}
  ,                                       !- Heating Maximum Air Flow per Zone Floor Area {m3/s-m2}
  ,                                       !- Heating Maximum Air Flow {m3/s}
  ,                                       !- Heating Maximum Air Flow Fraction
  ,                                       !- Design Zone Air Distribution Effectiveness in Cooling Mode
  ,                                       !- Design Zone Air Distribution Effectiveness in Heating Mode
  No,                                     !- Account for Dedicated Outdoor Air System
  NeutralSupplyAir,                       !- Dedicated Outdoor Air System Control Strategy
  autosize,                               !- Dedicated Outdoor Air Low Setpoint Temperature for Design {C}
  autosize;                               !- Dedicated Outdoor Air High Setpoint Temperature for Design {C}

OS:ZoneHVAC:EquipmentList,
  {adc825f3-8bba-4187-871d-643f73a6fc21}, !- Handle
  Zone HVAC Equipment List 2,             !- Name
  {9f422e3e-6cdb-43e6-bdcc-7cdc314a2868}; !- Thermal Zone

OS:Space,
  {fbe7c4c0-b76d-40dd-ad76-d922ed997473}, !- Handle
  MBT Laboratory C end_a - Story Ground,  !- Name
  {83ffe72e-5fe5-4a27-9bbc-f88152053d99}, !- Space Type Name
  ,                                       !- Default Construction Set Name
  ,                                       !- Default Schedule Set Name
  -0,                                     !- Direction of Relative North {deg}