
OS:Version,
  {f00fb086-223b-4b66-af8b-69183ccb1bb5}, !- Handle
  2.7.0;                                  !- Version Identifier

OS:SpaceType,
  {eeb20735-54a6-436d-88fb-06cd484b0eb9}, !- Handle
  MFm ResLiving,                          !- Name
  ,                                       !- Default Construction Set Name
  ,                                       !- Default Schedule Set Name
  ,                                       !- Group Rendering Name
  ,                                       !- Design Specification Outdoor Air Object Name
  ,                                       !- Standards Template
  MFm,                                    !- Standards Building Type
  ResLiving;                              !- Standards Space Type

OS:SpaceType,
  {b566ac88-9f4d-4c56-ae91-e5e0f856a4fe}, !- Handle
  MFm ResPublicArea,                      !- Name
  ,                                       !- Default Construction Set Name
  ,                                       !- Default Schedule Set Name
  ,                                       !- Group Rendering Name
  ,                                       !- Design Specification Outdoor Air Object Name
  ,                                       !- Standards Template
  MFm,                                    !- Standards Building Type
  ResPublicArea;                          !- Standards Space Type

OS:SpaceType,
  {70976cb6-016e-4b72-ad05-899ff5886283}, !- Handle
  MFm ResBedroom,                         !- Name
  ,                                       !- Default Construction Set Name
  ,                                       !- Default Schedule Set Name
  ,                                       !- Group Rendering Name
  ,                                       !- Design Specification Outdoor Air Object Name
  ,                                       !- Standards Template
  MFm,                                    !- Standards Building Type
  ResBedroom;                             !- Standards Space Type

OS:Building,
  {8bebb1cb-268d-4f8b-ad56-40d19ba0abfe}, !- Handle
  DEER Pre-1975|MFm,                      !- Name
  ,                                       !- Building Sector Type
  ,                                       !- North Axis {deg}
  ,                                       !- Nominal Floor to Floor Height {m}
  ,                                       !- Space Type Name
  ,                                       !- Default Construction Set Name
  ;                                       !- Default Schedule Set Name

OS:Site,
  {363fe786-1a3e-4a44-9b07-77eab3a4056c}, !- Handle
  Site 1,                                 !- Name
  ,                                       !- Latitude {deg}
  ,                                       !- Longitude {deg}
  ,                                       !- Time Zone {hr}
  ,                                       !- Elevation {m}
  ;                                       !- Terrain

OS:BuildingStory,
  {0989120f-6020-456e-9760-e2019fcb4585}, !- Handle
  Story Ground,                           !- Name
  0,                                      !- Nominal Z Coordinate {m}
  2.8956,                                 !- Nominal Floor to Floor Height {m}
  ,                                       !- Default Construction Set Name
  ,                                       !- Default Schedule Set Name
  ;                                       !- Group Rendering Name

OS:Space,
  {84738150-a241-49af-95f9-78da8f2fe49c}, !- Handle
  MFm ResLiving A end_a - Story Ground,   !- Name
  {eeb20735-54a6-436d-88fb-06cd484b0eb9}, !- Space Type Name
  ,                                       !- Default Construction Set Name
  ,                                       !- Default Schedule Set Name
  -0,                                     !- Direction of Relative North {deg}
  -18.7946338422434,                      !- X Origin {m}
  -13.4247384587453,                      !- Y Origin {m}
  0,                                      !- Z Origin {m}
  {0989120f-6020-456e-9760-e2019fcb4585}, !- Building Story Name
  {0642bb56-c6a9-4e7b-924b-e37f37de5e31}; !- Thermal Zone Name

OS:Surface,
  {6a37ae9b-fc79-4dc1-9dd9-8c09f9fdddcc}, !- Handle
  Surface 1,                              !- Name
  Floor,                                  !- Surface Type
  ,                                       !- Construction Name
  {84738150-a241-49af-95f9-78da8f2fe49c}, !- Space Name
  Ground,                                 !- Outside Boundary Condition
  ,                                       !- Outside Boundary Condition Object
  NoSun,                                  !- Sun Exposure
  NoWind,                                 !- Wind Exposure
  ,                                       !- View Factor to Ground
  ,                                       !- Number of Vertices
  -2.48689957516035e-014, -2.8421709430404e-014, 0, !- X,Y,Z Vertex 1 {m}
  -2.48689957516035e-014, 4.572, 0,       !- X,Y,Z Vertex 2 {m}
  4.57199999999997, 4.572, 0,             !- X,Y,Z Vertex 3 {m}
  4.57199999999997, -2.8421709430404e-014, 0; !- X,Y,Z Vertex 4 {m}

OS:Surface,
  {88301f15-4f66-4e97-85b1-c4dd68f983bc}, !- Handle
  Surface 2,                              !- Name
  Wall,                                   !- Surface Type
  ,                                       !- Construction Name
  {84738150-a241-49af-95f9-78da8f2fe49c}, !- Space Name
  Outdoors,                               !- Outside Boundary Condition
  ,                                       !- Outside Boundary Condition Object
  SunExposed,                             !- Sun Exposure
  WindExposed,                            !- Wind Exposure
  ,                                       !- View Factor to Ground
  ,                                       !- Number of Vertices
  -2.48689957516035e-014, 4.572, 2.8956,  !- X,Y,Z Vertex 1 {m}
  -2.48689957516035e-014, 4.572, 0,       !- X,Y,Z Vertex 2 {m}
  -2.48689957516035e-014, -2.8421709430404e-014, 0, !- X,Y,Z Vertex 3 {m}
  -2.48689957516035e-014, -2.8421709430404e-014, 2.8956; !- X,Y,Z Vertex 4 {m}

OS:Surface,
  {8df7c279-1dcb-4f9a-867a-2c856c570856}, !- Handle
  Surface 3,                              !- Name
  Wall,                                   !- Surface Type
  ,                                       !- Construction Name
  {84738150-a241-49af-95f9-78da8f2fe49c}, !- Space Name
  Surface,                                !- Outside Boundary Condition
  {6cfd42a7-65ad-406f-8b49-1cb2ed22153d}, !- Outside Boundary Condition Object
  NoSun,                                  !- Sun Exposure
  NoWind,                                 !- Wind Exposure
  ,                                       !- View Factor to Ground
  ,                                       !- Number of Vertices
  4.57199999999997, 4.572, 2.8956,        !- X,Y,Z Vertex 1 {m}
  4.57199999999997, 4.572, 0,             !- X,Y,Z Vertex 2 {m}
  -2.48689957516035e-014, 4.572, 0,       !- X,Y,Z Vertex 3 {m}
  -2.48689957516035e-014, 4.572, 2.8956;  !- X,Y,Z Vertex 4 {m}

OS:Surface,
  {5431b05b-b648-451d-8448-7726f7ad497a}, !- Handle
  Surface 4,                              !- Name
  Wall,                                   !- Surface Type
  ,                                       !- Construction Name
  {84738150-a241-49af-95f9-78da8f2fe49c}, !- Space Name
  Surface,                                !- Outside Boundary Condition
  {948ecbb4-9709-4594-957f-1b44a39a7f92}, !- Outside Boundary Condition Object
  NoSun,                                  !- Sun Exposure
  NoWind,                                 !- Wind Exposure
  ,                                       !- View Factor to Ground
  ,                                       !- Number of Vertices
  4.57199999999997, -2.8421709430404e-014, 2.8956, !- X,Y,Z Vertex 1 {m}
  4.57199999999997, -2.8421709430404e-014, 0, !- X,Y,Z Vertex 2 {m}
  4.57199999999997, 4.572, 0,             !- X,Y,Z Vertex 3 {m}
  4.57199999999997, 4.572, 2.8956;        !- X,Y,Z Vertex 4 {m}

OS:Surface,
  {a9bdd0e0-d7d8-44eb-a331-3fb2b2d47deb}, !- Handle
  Surface 5,                              !- Name
  Wall,                                   !- Surface Type
  ,                                       !- Construction Name
  {84738150-a241-49af-95f9-78da8f2fe49c}, !- Space Name
  Outdoors,                               !- Outside Boundary Condition
  ,                                       !- Outside Boundary Condition Object
  SunExposed,                             !- Sun Exposure
  WindExposed,                            !- Wind Exposure
  ,                                       !- View Factor to Ground
  ,                                       !- Number of Vertices
  -2.48689957516035e-014, -2.8421709430404e-014, 2.8956, !- X,Y,Z Vertex 1 {m}
  -2.48689957516035e-014, -2.8421709430404e-014, 0, !- X,Y,Z Vertex 2 {m}
  4.57199999999997, -2.8421709430404e-014, 0, !- X,Y,Z Vertex 3 {m}
  4.57199999999997, -2.8421709430404e-014, 2.8956; !- X,Y,Z Vertex 4 {m}

OS:Surface,
  {dedf3e4b-695a-4e9e-baa2-1ed3e97cf768}, !- Handle
  Surface 6,                              !- Name
  RoofCeiling,                            !- Surface Type
  ,                                       !- Construction Name
  {84738150-a241-49af-95f9-78da8f2fe49c}, !- Space Name
  Surface,                                !- Outside Boundary Condition
  {6fca1dd0-3b98-4658-9787-f193a15a725f}, !- Outside Boundary Condition Object
  NoSun,                                  !- Sun Exposure
  NoWind,                                 !- Wind Exposure
  ,                                       !- View Factor to Ground
  ,                                       !- Number of Vertices
  4.57199999999997, -2.8421709430404e-014, 2.8956, !- X,Y,Z Vertex 1 {m}
  4.57199999999997, 4.572, 2.8956,        !- X,Y,Z Vertex 2 {m}
  -2.48689957516035e-014, 4.572, 2.8956,  !- X,Y,Z Vertex 3 {m}
  -2.48689957516035e-014, -2.8421709430404e-014, 2.8956; !- X,Y,Z Vertex 4 {m}

OS:ThermalZone,
  {0642bb56-c6a9-4e7b-924b-e37f37de5e31}, !- Handle
  Zone MFm ResLiving A end_a - Story Ground, !- Name
  1,                                      !- Multiplier
  ,                                       !- Ceiling Height {m}
  ,                                       !- Volume {m3}
  ,                                       !- Floor Area {m2}
  ,                                       !- Zone Inside Convection Algorithm
  ,                                       !- Zone Outside Convection Algorithm
  ,                                       !- Zone Conditioning Equipment List Name
  {8a6ed841-0a36-4873-81b3-623661aba5e6}, !- Zone Air Inlet Port List
  {d1895cf1-4688-4f04-9672-4d9f7a1d6da0}, !- Zone Air Exhaust Port List
  {ff880636-93cb-46e7-b30d-75411320c5cc}, !- Zone Air Node Name
  {6364c790-bad7-47df-879d-e46b59c62557}, !- Zone Return Air Port List
  ,                                       !- Primary Daylighting Control Name
  ,                                       !- Fraction of Zone Controlled by Primary Daylighting Control
  ,                                       !- Secondary Daylighting Control Name
  ,                                       !- Fraction of Zone Controlled by Secondary Daylighting Control
  ,                                       !- Illuminance Map Name
  ,                                       !- Group Rendering Name
  ,                                       !- Thermostat Name
  No;                                     !- Use Ideal Air Loads

OS:Node,
  {aee327b4-7936-4c21-a4ac-051edbaf6e97}, !- Handle
  Node 1,                                 !- Name
  {ff880636-93cb-46e7-b30d-75411320c5cc}, !- Inlet Port
  ;                                       !- Outlet Port

OS:Connection,
  {ff880636-93cb-46e7-b30d-75411320c5cc}, !- Handle
  {abb9e972-c4c5-4b20-b62a-7d426cc41210}, !- Name
  {0642bb56-c6a9-4e7b-924b-e37f37de5e31}, !- Source Object
  11,                                     !- Outlet Port
  {aee327b4-7936-4c21-a4ac-051edbaf6e97}, !- Target Object
  2;                                      !- Inlet Port

OS:PortList,
  {8a6ed841-0a36-4873-81b3-623661aba5e6}, !- Handle
  {838b3d98-fe79-4b3d-b5b9-49eaa40e0e74}, !- Name
  {0642bb56-c6a9-4e7b-924b-e37f37de5e31}; !- HVAC Component

OS:PortList,
  {d1895cf1-4688-4f04-9672-4d9f7a1d6da0}, !- Handle
  {01a9579a-5e87-41ea-8742-9a492111b7af}, !- Name
  {0642bb56-c6a9-4e7b-924b-e37f37de5e31}; !- HVAC Component

OS:PortList,
  {6364c790-bad7-47df-879d-e46b59c62557}, !- Handle
  {19df65c0-3c51-4873-b11b-aa2d1594970f}, !- Name
  {0642bb56-c6a9-4e7b-924b-e37f37de5e31}; !- HVAC Component

OS:Sizing:Zone,
  {533cd1e8-b6aa-4bef-acea-480ca18a2fda}, !- Handle
  {0642bb56-c6a9-4e7b-924b-e37f37de5e31}, !- Zone or ZoneList Name
  SupplyAirTemperature,                   !- Zone Cooling Design Supply Air Temperature Input Method
  14,                                     !- Zone Cooling Design Supply Air Temperature {C}
  11.11,                                  !- Zone Cooling Design Supply Air Temperature Difference {deltaC}
  SupplyAirTemperature,                   !- Zone Heating Design Supply Air Temperature Input Method
  40,                                     !- Zone Heating Design Supply Air Temperature {C}
  11.11,                                  !- Zone Heating Design Supply Air Temperature Difference {deltaC}
  0.0085,                                 !- Zone Cooling Design Supply Air Humidity Ratio {kg-H2O/kg-air}
  0.008,                                  !- Zone Heating Design Supply Air Humidity Ratio {kg-H2O/kg-air}
  ,                                       !- Zone Heating Sizing Factor
  ,                                       !- Zone Cooling Sizing Factor
  DesignDay,                              !- Cooling Design Air Flow Method
  ,                                       !- Cooling Design Air Flow Rate {m3/s}
  ,                                       !- Cooling Minimum Air Flow per Zone Floor Area {m3/s-m2}
  ,                                       !- Cooling Minimum Air Flow {m3/s}
  ,                                       !- Cooling Minimum Air Flow Fraction
  DesignDay,                              !- Heating Design Air Flow Method
  ,                                       !- Heating Design Air Flow Rate {m3/s}
  ,                                       !- Heating Maximum Air Flow per Zone Floor Area {m3/s-m2}
  ,                                       !- Heating Maximum Air Flow {m3/s}
  ,                                       !- Heating Maximum Air Flow Fraction
  ,                                       !- Design Zone Air Distribution Effectiveness in Cooling Mode
  ,                                       !- Design Zone Air Distribution Effectiveness in Heating Mode
  No,                                     !- Account for Dedicated Outdoor Air System
  NeutralSupplyAir,                       !- Dedicated Outdoor Air System Control Strategy
  autosize,                               !- Dedicated Outdoor Air Low Setpoint Temperature for Design {C}
  autosize;                               !- Dedicated Outdoor Air High Setpoint Temperature for Design {C}

OS:ZoneHVAC:EquipmentList,
  {b7255d3e-a7d6-4a78-9f97-9f1e303bf8d1}, !- Handle
  Zone HVAC Equipment List 1,             !- Name
  {0642bb56-c6a9-4e7b-924b-e37f37de5e31}; !- Thermal Zone

OS:Space,
  {65894404-06b9-4e9b-b536-92dd9e7c8fd2}, !- Handle
  MFm ResLiving B end_a - Story Ground,   !- Name
  {eeb20735-54a6-436d-88fb-06cd484b0eb9}, !- Space Type Name
  ,                                       !- Default Construction Set Name
  ,                                       !- Default Schedule Set Name
  -0,                                     !- Direction of Relative North {deg}
  -18.7946338422434,                      !- X Origin {m}
  -8.85273845874527,                      !- Y Origin {m}
  0,                                      !- Z Origin {m}
  {0989120f-6020-456e-9760-e2019fcb4585}, !- Building Story Name
  {602c89e0-e76a-4f17-87da-0ada29ee4354}; !- Thermal Zone Name

OS:Surface,
  {0ce03ff8-a515-4342-bd78-f6fdfbe279ac}, !- Handle
  Surface 7,                              !- Name
  Floor,                                  !- Surface Type
  ,                                       !- Construction Name
  {65894404-06b9-4e9b-b536-92dd9e7c8fd2}, !- Space Name
  Ground,                                 !- Outside Boundary Condition
  ,                                       !- Outside Boundary Condition Object
  NoSun,                                  !- Sun Exposure
  NoWind,                                 !- Wind Exposure
  ,                                       !- View Factor to Ground
  ,                                       !- Number of Vertices
  -2.48689957516035e-014, 1.77635683940025e-015, 0, !- X,Y,Z Vertex 1 {m}
  -2.48689957516035e-014, 17.7054769174905, 0, !- X,Y,Z Vertex 2 {m}
  4.57199999999997, 17.7054769174905, 0,  !- X,Y,Z Vertex 3 {m}
  4.57199999999997, 1.77635683940025e-015, 0; !- X,Y,Z Vertex 4 {m}

OS:Surface,
  {ba20938c-15eb-4372-b38e-d6848871d355}, !- Handle
  Surface 8,                              !- Name
  Wall,                                   !- Surface Type
  ,                                       !- Construction Name
  {65894404-06b9-4e9b-b536-92dd9e7c8fd2}, !- Space Name
  Outdoors,                               !- Outside Boundary Condition
  ,                                       !- Outside Boundary Condition Object
  SunExposed,                             !- Sun Exposure
  WindExposed,                            !- Wind Exposure
  ,                                       !- View Factor to Ground
  ,                                       !- Number of Vertices
  -2.48689957516035e-014, 17.7054769174905, 2.8956, !- X,Y,Z Vertex 1 {m}
  -2.48689957516035e-014, 17.7054769174905, 0, !- X,Y,Z Vertex 2 {m}
  -2.48689957516035e-014, 1.77635683940025e-015, 0, !- X,Y,Z Vertex 3 {m}
  -2.48689957516035e-014, 1.77635683940025e-015, 2.8956; !- X,Y,Z Vertex 4 {m}

OS:Surface,
  {7710df6a-75d4-44e1-891c-3b27ece3b15f}, !- Handle
  Surface 9,                              !- Name
  Wall,                                   !- Surface Type
  ,                                       !- Construction Name
  {65894404-06b9-4e9b-b536-92dd9e7c8fd2}, !- Space Name
  Surface,                                !- Outside Boundary Condition
  {cc5cdd5c-7678-448e-a4ee-80d436cf593b}, !- Outside Boundary Condition Object
  NoSun,                                  !- Sun Exposure
  NoWind,                                 !- Wind Exposure
  ,                                       !- View Factor to Ground
  ,                                       !- Number of Vertices
  4.57199999999997, 17.7054769174905, 2.8956, !- X,Y,Z Vertex 1 {m}
  4.57199999999997, 17.7054769174905, 0,  !- X,Y,Z Vertex 2 {m}
  -2.48689957516035e-014, 17.7054769174905, 0, !- X,Y,Z Vertex 3 {m}
  -2.48689957516035e-014, 17.7054769174905, 2.8956; !- X,Y,Z Vertex 4 {m}

OS:Surface,
  {932a3281-0f4f-4a8b-98a1-522d205e89d7}, !- Handle
  Surface 10,                             !- Name
  Wall,                                   !- Surface Type
  ,                                       !- Construction Name
  {65894404-06b9-4e9b-b536-92dd9e7c8fd2}, !- Space Name
  Surface,                                !- Outside Boundary Condition
  {26c74b3c-da57-4452-b2e1-a9bec2b14041}, !- Outside Boundary Condition Object
  NoSun,                                  !- Sun Exposure
  NoWind,                                 !- Wind Exposure
  ,                                       !- View Factor to Ground
  ,                                       !- Number of Vertices
  4.57199999999997, 1.77635683940025e-015, 2.8956, !- X,Y,Z Vertex 1 {m}
  4.57199999999997, 1.77635683940025e-015, 0, !- X,Y,Z Vertex 2 {m}
  4.57199999999997, 17.7054769174905, 0,  !- X,Y,Z Vertex 3 {m}
  4.57199999999997, 17.7054769174905, 2.8956; !- X,Y,Z Vertex 4 {m}

OS:Surface,
  {6cfd42a7-65ad-406f-8b49-1cb2ed22153d}, !- Handle
  Surface 11,                             !- Name
  Wall,                                   !- Surface Type
  ,                                       !- Construction Name
  {65894404-06b9-4e9b-b536-92dd9e7c8fd2}, !- Space Name
  Surface,                                !- Outside Boundary Condition
  {8df7c279-1dcb-4f9a-867a-2c856c570856}, !- Outside Boundary Condition Object
  NoSun,                                  !- Sun Exposure
  NoWind,                                 !- Wind Exposure
  ,                                       !- View Factor to Ground
  ,                                       !- Number of Vertices
  -2.48689957516035e-014, 1.77635683940025e-015, 2.8956, !- X,Y,Z Vertex 1 {m}
  -2.48689957516035e-014, 1.77635683940025e-015, 0, !- X,Y,Z Vertex 2 {m}
  4.57199999999997, 1.77635683940025e-015, 0, !- X,Y,Z Vertex 3 {m}
  4.57199999999997, 1.77635683940025e-015, 2.8956; !- X,Y,Z Vertex 4 {m}

OS:Surface,
  {9834360c-1f87-43f1-a77e-4a0c64d773ad}, !- Handle
  Surface 12,                             !- Name
  RoofCeiling,                            !- Surface Type
  ,                                       !- Construction Name
  {65894404-06b9-4e9b-b536-92dd9e7c8fd2}, !- Space Name
  Surface,                                !- Outside Boundary Condition
  {1458b79c-78f7-4e00-b557-150f22a168fe}, !- Outside Boundary Condition Object
  NoSun,                                  !- Sun Exposure
  NoWind,                                 !- Wind Exposure
  ,                                       !- View Factor to Ground
  ,                                       !- Number of Vertices
  4.57199999999997, 1.77635683940025e-015, 2.8956, !- X,Y,Z Vertex 1 {m}
  4.57199999999997, 17.7054769174905, 2.8956, !- X,Y,Z Vertex 2 {m}
  -2.48689957516035e-014, 17.7054769174905, 2.8956, !- X,Y,Z Vertex 3 {m}
  -2.48689957516035e-014, 1.77635683940025e-015, 2.8956; !- X,Y,Z Vertex 4 {m}

OS:ThermalZone,
  {602c89e0-e76a-4f17-87da-0ada29ee4354}, !- Handle
  Zone MFm ResLiving B end_a - Story Ground, !- Name
  1,                                      !- Multiplier
  ,                                       !- Ceiling Height {m}
  ,                                       !- Volume {m3}
  ,                                       !- Floor Area {m2}
  ,                                       !- Zone Inside Convection Algorithm
  ,                                       !- Zone Outside Convection Algorithm
  ,                                       !- Zone Conditioning Equipment List Name
  {56423674-67e0-4283-af7d-a03f41fe03eb}, !- Zone Air Inlet Port List
  {cee95da1-627f-4399-9d42-67a95ba4cbed}, !- Zone Air Exhaust Port List
  {519c4ff9-a434-487c-bd9f-5f3f57f75382}, !- Zone Air Node Name
  {97cafb46-2911-4e7a-8f35-eaf14d2d3ae8}, !- Zone Return Air Port List
  ,                                       !- Primary Daylighting Control Name
  ,                                       !- Fraction of Zone Controlled by Primary Daylighting Control
  ,                                       !- Secondary Daylighting Control Name
  ,                                       !- Fraction of Zone Controlled by Secondary Daylighting Control
  ,                                       !- Illuminance Map Name
  ,                                       !- Group Rendering Name
  ,                                       !- Thermostat Name
  No;                                     !- Use Ideal Air Loads

OS:Node,
  {7ef89a8e-029d-4a1b-94df-9edaf3dd74fd}, !- Handle
  Node 2,                                 !- Name
  {519c4ff9-a434-487c-bd9f-5f3f57f75382}, !- Inlet Port
  ;                                       !- Outlet Port

OS:Connection,
  {519c4ff9-a434-487c-bd9f-5f3f57f75382}, !- Handle
  {fa2356ab-0a34-4784-9262-8225fb09cd2e}, !- Name
  {602c89e0-e76a-4f17-87da-0ada29ee4354}, !- Source Object
  11,                                     !- Outlet Port
  {7ef89a8e-029d-4a1b-94df-9edaf3dd74fd}, !- Target Object
  2;                                      !- Inlet Port

OS:PortList,
  {56423674-67e0-4283-af7d-a03f41fe03eb}, !- Handle
  {58cf7131-8c9b-4a75-a146-6036d49afebc}, !- Name
  {602c89e0-e76a-4f17-87da-0ada29ee4354}; !- HVAC Component

OS:PortList,
  {cee95da1-627f-4399-9d42-67a95ba4cbed}, !- Handle
  {1327357f-7024-4f5b-a55d-07b5209b51e4}, !- Name
  {602c89e0-e76a-4f17-87da-0ada29ee4354}; !- HVAC Component

OS:PortList,
  {97cafb46-2911-4e7a-8f35-eaf14d2d3ae8}, !- Handle
  {fa2f790b-b2d7-4cd1-b16f-7fa296528bb7}, !- Name
  {602c89e0-e76a-4f17-87da-0ada29ee4354}; !- HVAC Component

OS:Sizing:Zone,
  {caa3a646-64e7-4ec8-b353-d9ed1798af28}, !- Handle
  {602c89e0-e76a-4f17-87da-0ada29ee4354}, !- Zone or ZoneList Name
  SupplyAirTemperature,                   !- Zone Cooling Design Supply Air Temperature Input Method
  14,                                     !- Zone Cooling Design Supply Air Temperature {C}
  11.11,                                  !- Zone Cooling Design Supply Air Temperature Difference {deltaC}
  SupplyAirTemperature,                   !- Zone Heating Design Supply Air Temperature Input Method
  40,                                     !- Zone Heating Design Supply Air Temperature {C}
  11.11,                                  !- Zone Heating Design Supply Air Temperature Difference {deltaC}
  0.0085,                                 !- Zone Cooling Design Supply Air Humidity Ratio {kg-H2O/kg-air}
  0.008,                                  !- Zone Heating Design Supply Air Humidity Ratio {kg-H2O/kg-air}
  ,                                       !- Zone Heating Sizing Factor
  ,                                       !- Zone Cooling Sizing Factor
  DesignDay,                              !- Cooling Design Air Flow Method
  ,                                       !- Cooling Design Air Flow Rate {m3/s}
  ,                                       !- Cooling Minimum Air Flow per Zone Floor Area {m3/s-m2}
  ,                                       !- Cooling Minimum Air Flow {m3/s}
  ,                                       !- Cooling Minimum Air Flow Fraction
  DesignDay,                              !- Heating Design Air Flow Method
  ,                                       !- Heating Design Air Flow Rate {m3/s}
  ,                                       !- Heating Maximum Air Flow per Zone Floor Area {m3/s-m2}
  ,                                       !- Heating Maximum Air Flow {m3/s}
  ,                                       !- Heating Maximum Air Flow Fraction
  ,                                       !- Design Zone Air Distribution Effectiveness in Cooling Mode
  ,                                       !- Design Zone Air Distribution Effectiveness in Heating Mode
  No,                                     !- Account for Dedicated Outdoor Air System
  NeutralSupplyAir,                       !- Dedicated Outdoor Air System Control Strategy
  autosize,                               !- Dedicated Outdoor Air Low Setpoint Temperature for Design {C}
  autosize;                               !- Dedicated Outdoor Air High Setpoint Temperature for Design {C}

OS:ZoneHVAC:EquipmentList,
  {d3cc88e5-24e0-455b-bbd5-33921c3c1cc0}, !- Handle
  Zone HVAC Equipment List 2,             !- Name
  {602c89e0-e76a-4f17-87da-0ada29ee4354}; !- Thermal Zone

OS:Space,
  {ba33319d-7f99-4f88-a77b-35dbda4ea97b}, !- Handle
  MFm ResLiving C end_a - Story Ground,   !- Name
  {eeb20735-54a6-436d-88fb-06cd484b0eb9}, !- Space Type Name
  ,                                       !- Default Construction Set Name
  ,                                       !- Default Schedule Set Name
  -0,                                     !- Direction of Relative North {deg}
  -18.7946338422434,                      !- X Origin {m}
  8.85273845874527,                       !- Y Origin {m}
  0,                                      !- Z Origin {m}
  {0989120f-6020-456e-9760-e2019fcb4585}, !- Building Story Name
  {1850d151-2f33-4fe5-ac5c-37c1f421e684}; !- Thermal Zone Name

OS:Surface,
  {de1e60e4-17ee-4a65-9531-07a7a670c553}, !- Handle
  Surface 13,                             !- Name
  Floor,                                  !- Surface Type
  ,                                       !- Construction Name
  {ba33319d-7f99-4f88-a77b-35dbda4ea97b}, !- Space Name
  Ground,                                 !- Outside Boundary Condition
  ,                                       !- Outside Boundary Condition Object
  NoSun,                                  !- Sun Exposure
  NoWind,                                 !- Wind Exposure
  ,                                       !- View Factor to Ground
  ,                                       !- Number of Vertices
  -2.48689957516035e-014, -1.77635683940025e-015, 0, !- X,Y,Z Vertex 1 {m}
  -2.48689957516035e-014, 4.57200000000003, 0, !- X,Y,Z Vertex 2 {m}
  4.57199999999997, 4.57200000000003, 0,  !- X,Y,Z Vertex 3 {m}
  4.57199999999997, -1.77635683940025e-015, 0; !- X,Y,Z Vertex 4 {m}

OS:Surface,
  {90752897-01a0-43af-805b-1ea5cf04f6fe}, !- Handle
  Surface 14,                             !- Name
  Wall,                                   !- Surface Type
  ,                                       !- Construction Name
  {ba33319d-7f99-4f88-a77b-35dbda4ea97b}, !- Space Name
  Outdoors,                               !- Outside Boundary Condition
  ,                                       !- Outside Boundary Condition Object
  SunExposed,                             !- Sun Exposure
  WindExposed,                            !- Wind Exposure
  ,                                       !- View Factor to Ground
  ,                                       !- Number of Vertices
  -2.48689957516035e-014, 4.57200000000003, 2.8956, !- X,Y,Z Vertex 1 {m}
  -2.48689957516035e-014, 4.57200000000003, 0, !- X,Y,Z Vertex 2 {m}
  -2.48689957516035e-014, -1.77635683940025e-015, 0, !- X,Y,Z Vertex 3 {m}
  -2.48689957516035e-014, -1.77635683940025e-015, 2.8956; !- X,Y,Z Vertex 4 {m}

OS:Surface,
  {7939b351-3c36-4d3e-ae81-f6240708c37e}, !- Handle
  Surface 15,                             !- Name
  Wall,                                   !- Surface Type
  ,                                       !- Construction Name