
OS:Version,
  {e93844f1-00e0-4180-b70e-d72ce94468f3}, !- Handle
  2.7.0;                                  !- Version Identifier

OS:SpaceType,
  {7ed769a1-d83e-48b3-a92e-f05d072d744c}, !- Handle
  MLI StockRoom,                          !- Name
  ,                                       !- Default Construction Set Name
  ,                                       !- Default Schedule Set Name
  ,                                       !- Group Rendering Name
  ,                                       !- Design Specification Outdoor Air Object Name
  ,                                       !- Standards Template
  MLI,                                    !- Standards Building Type
  StockRoom;                              !- Standards Space Type

OS:SpaceType,
  {fd201ec1-5d7f-479a-8cb4-ef9827e5e903}, !- Handle
  MLI Work,                               !- Name
  ,                                       !- Default Construction Set Name
  ,                                       !- Default Schedule Set Name
  ,                                       !- Group Rendering Name
  ,                                       !- Design Specification Outdoor Air Object Name
  ,                                       !- Standards Template
  MLI,                                    !- Standards Building Type
  Work;                                   !- Standards Space Type

OS:Building,
  {bdccdcec-2363-4e2a-a894-debf34922093}, !- Handle
  DEER Pre-1975|MLI,                      !- Name
  ,                                       !- Building Sector Type
  ,                                       !- North Axis {deg}
  ,                                       !- Nominal Floor to Floor Height {m}
  ,                                       !- Space Type Name
  ,                                       !- Default Construction Set Name
  ;                                       !- Default Schedule Set Name

OS:Site,
  {836153dc-deb4-4021-bab7-ad805871073a}, !- Handle
  Site 1,                                 !- Name
  ,                                       !- Latitude {deg}
  ,                                       !- Longitude {deg}
  ,                                       !- Time Zone {hr}
  ,                                       !- Elevation {m}
  ;                                       !- Terrain

OS:BuildingStory,
  {0d996dea-6f05-4046-9f60-4d9e9229882e}, !- Handle
  Story Ground,                           !- Name
  0,                                      !- Nominal Z Coordinate {m}
  10.668,                                 !- Nominal Floor to Floor Height {m}
  ,                                       !- Default Construction Set Name
  ,                                       !- Default Schedule Set Name
  ;                                       !- Group Rendering Name

OS:Space,
  {fadbb009-7842-4c01-8976-658769524364}, !- Handle
  MLI Work A end_a - Story Ground,        !- Name
  {fd201ec1-5d7f-479a-8cb4-ef9827e5e903}, !- Space Type Name
  ,                                       !- Default Construction Set Name
  ,                                       !- Default Schedule Set Name
  -0,                                     !- Direction of Relative North {deg}
  -48.1964849407091,                      !- X Origin {m}
  -48.1964849407091,                      !- Y Origin {m}
  0,                                      !- Z Origin {m}
  {0d996dea-6f05-4046-9f60-4d9e9229882e}, !- Building Story Name
  {4c9d352f-c230-414b-8817-831e24673b0a}; !- Thermal Zone Name

OS:Surface,
  {ffff0e2a-fb67-471a-b912-137d71123313}, !- Handle
  Surface 1,                              !- Name
  Floor,                                  !- Surface Type
  ,                                       !- Construction Name
  {fadbb009-7842-4c01-8976-658769524364}, !- Space Name
  Ground,                                 !- Outside Boundary Condition
  ,                                       !- Outside Boundary Condition Object
  NoSun,                                  !- Sun Exposure
  NoWind,                                 !- Wind Exposure
  ,                                       !- View Factor to Ground
  ,                                       !- Number of Vertices
  7.105427357601e-015, 1.4210854715202e-014, 0, !- X,Y,Z Vertex 1 {m}
  7.105427357601e-015, 4.57200000000001, 0, !- X,Y,Z Vertex 2 {m}
  4.572, 4.57200000000001, 0,             !- X,Y,Z Vertex 3 {m}
  4.572, 1.4210854715202e-014, 0;         !- X,Y,Z Vertex 4 {m}

OS:Surface,
  {fec8c0ae-95d8-4905-ad04-f1ecd997e383}, !- Handle
  Surface 2,                              !- Name
  Wall,                                   !- Surface Type
  ,                                       !- Construction Name
  {fadbb009-7842-4c01-8976-658769524364}, !- Space Name
  Outdoors,                               !- Outside Boundary Condition
  ,                                       !- Outside Boundary Condition Object
  SunExposed,                             !- Sun Exposure
  WindExposed,                            !- Wind Exposure
  ,                                       !- View Factor to Ground
  ,                                       !- Number of Vertices
  7.105427357601e-015, 4.57200000000001, 10.668, !- X,Y,Z Vertex 1 {m}
  7.105427357601e-015, 4.57200000000001, 0, !- X,Y,Z Vertex 2 {m}
  7.105427357601e-015, 1.4210854715202e-014, 0, !- X,Y,Z Vertex 3 {m}
  7.105427357601e-015, 1.4210854715202e-014, 10.668; !- X,Y,Z Vertex 4 {m}

OS:Surface,
  {3f7b74a2-ea7e-441b-948e-b8307e960173}, !- Handle
  Surface 3,                              !- Name
  Wall,                                   !- Surface Type
  ,                                       !- Construction Name
  {fadbb009-7842-4c01-8976-658769524364}, !- Space Name
  Surface,                                !- Outside Boundary Condition
  {e19c599c-5a2b-4222-9494-15c488a39254}, !- Outside Boundary Condition Object
  NoSun,                                  !- Sun Exposure
  NoWind,                                 !- Wind Exposure
  ,                                       !- View Factor to Ground
  ,                                       !- Number of Vertices
  4.572, 4.57200000000001, 10.668,        !- X,Y,Z Vertex 1 {m}
  4.572, 4.57200000000001, 0,             !- X,Y,Z Vertex 2 {m}
  7.105427357601e-015, 4.57200000000001, 0, !- X,Y,Z Vertex 3 {m}
  7.105427357601e-015, 4.57200000000001, 10.668; !- X,Y,Z Vertex 4 {m}

OS:Surface,
  {2abb4f85-01bb-41df-a764-86c8cfe1cf42}, !- Handle
  Surface 4,                              !- Name
  Wall,                                   !- Surface Type
  ,                                       !- Construction Name
  {fadbb009-7842-4c01-8976-658769524364}, !- Space Name
  Surface,                                !- Outside Boundary Condition
  {3bfe3763-d663-40cf-96ae-0042e476af54}, !- Outside Boundary Condition Object
  NoSun,                                  !- Sun Exposure
  NoWind,                                 !- Wind Exposure
  ,                                       !- View Factor to Ground
  ,                                       !- Number of Vertices
  4.572, 1.4210854715202e-014, 10.668,    !- X,Y,Z Vertex 1 {m}
  4.572, 1.4210854715202e-014, 0,         !- X,Y,Z Vertex 2 {m}
  4.572, 4.57200000000001, 0,             !- X,Y,Z Vertex 3 {m}
  4.572, 4.57200000000001, 10.668;        !- X,Y,Z Vertex 4 {m}

OS:Surface,
  {a49863a4-c800-4bfb-ab20-9fedd3bd67a0}, !- Handle
  Surface 5,                              !- Name
  Wall,                                   !- Surface Type
  ,                                       !- Construction Name
  {fadbb009-7842-4c01-8976-658769524364}, !- Space Name
  Outdoors,                               !- Outside Boundary Condition
  ,                                       !- Outside Boundary Condition Object
  SunExposed,                             !- Sun Exposure
  WindExposed,                            !- Wind Exposure
  ,                                       !- View Factor to Ground
  ,                                       !- Number of Vertices
  7.105427357601e-015, 1.4210854715202e-014, 10.668, !- X,Y,Z Vertex 1 {m}
  7.105427357601e-015, 1.4210854715202e-014, 0, !- X,Y,Z Vertex 2 {m}
  4.572, 1.4210854715202e-014, 0,         !- X,Y,Z Vertex 3 {m}
  4.572, 1.4210854715202e-014, 10.668;    !- X,Y,Z Vertex 4 {m}

OS:Surface,
  {94df6591-b902-48bc-86f0-6bb557b350ca}, !- Handle
  Surface 6,                              !- Name
  RoofCeiling,                            !- Surface Type
  ,                                       !- Construction Name
  {fadbb009-7842-4c01-8976-658769524364}, !- Space Name
  Outdoors,                               !- Outside Boundary Condition
  ,                                       !- Outside Boundary Condition Object
  SunExposed,                             !- Sun Exposure
  WindExposed,                            !- Wind Exposure
  ,                                       !- View Factor to Ground
  ,                                       !- Number of Vertices
  4.572, 1.4210854715202e-014, 10.668,    !- X,Y,Z Vertex 1 {m}
  4.572, 4.57200000000001, 10.668,        !- X,Y,Z Vertex 2 {m}
  7.105427357601e-015, 4.57200000000001, 10.668, !- X,Y,Z Vertex 3 {m}
  7.105427357601e-015, 1.4210854715202e-014, 10.668; !- X,Y,Z Vertex 4 {m}

OS:ThermalZone,
  {4c9d352f-c230-414b-8817-831e24673b0a}, !- Handle
  Zone MLI Work A end_a - Story Ground,   !- Name
  1,                                      !- Multiplier
  ,                                       !- Ceiling Height {m}
  ,                                       !- Volume {m3}
  ,                                       !- Floor Area {m2}
  ,                                       !- Zone Inside Convection Algorithm
  ,                                       !- Zone Outside Convection Algorithm
  ,                                       !- Zone Conditioning Equipment List Name
  {39f2a521-b3a3-40d0-9354-a245f7a5e635}, !- Zone Air Inlet Port List
  {fd884b71-b073-409c-9fac-9cbe33c17919}, !- Zone Air Exhaust Port List
  {acbfb7bb-871f-4742-b6ad-d7cedc331517}, !- Zone Air Node Name
  {db3721cd-1314-45c5-9d47-6c78cc5d1b0d}, !- Zone Return Air Port List
  ,                                       !- Primary Daylighting Control Name
  ,                                       !- Fraction of Zone Controlled by Primary Daylighting Control
  ,                                       !- Secondary Daylighting Control Name
  ,                                       !- Fraction of Zone Controlled by Secondary Daylighting Control
  ,                                       !- Illuminance Map Name
  ,                                       !- Group Rendering Name
  ,                                       !- Thermostat Name
  No;                                     !- Use Ideal Air Loads

OS:Node,
  {1d8c9fe0-9f06-451d-b589-1a85be7115d6}, !- Handle
  Node 1,                                 !- Name
  {acbfb7bb-871f-4742-b6ad-d7cedc331517}, !- Inlet Port
  ;                                       !- Outlet Port

OS:Connection,
  {acbfb7bb-871f-4742-b6ad-d7cedc331517}, !- Handle
  {fe73efbf-0f64-48b3-a239-7a1f5e2cde67}, !- Name
  {4c9d352f-c230-414b-8817-831e24673b0a}, !- Source Object
  11,                                     !- Outlet Port
  {1d8c9fe0-9f06-451d-b589-1a85be7115d6}, !- Target Object
  2;                                      !- Inlet Port

OS:PortList,
  {39f2a521-b3a3-40d0-9354-a245f7a5e635}, !- Handle
  {a9323630-c329-4d79-bca1-d5b6965566cb}, !- Name
  {4c9d352f-c230-414b-8817-831e24673b0a}; !- HVAC Component

OS:PortList,
  {fd884b71-b073-409c-9fac-9cbe33c17919}, !- Handle
  {daba76a6-95a1-40b9-8fb5-6d9df9593c9a}, !- Name
  {4c9d352f-c230-414b-8817-831e24673b0a}; !- HVAC Component

OS:PortList,
  {db3721cd-1314-45c5-9d47-6c78cc5d1b0d}, !- Handle
  {4b8a2880-8dc9-4b72-b3bb-8c09fffbe59a}, !- Name
  {4c9d352f-c230-414b-8817-831e24673b0a}; !- HVAC Component

OS:Sizing:Zone,
  {5f6788d0-578a-48ad-b891-6581f6e59054}, !- Handle
  {4c9d352f-c230-414b-8817-831e24673b0a}, !- Zone or ZoneList Name
  SupplyAirTemperature,                   !- Zone Cooling Design Supply Air Temperature Input Method
  14,                                     !- Zone Cooling Design Supply Air Temperature {C}
  11.11,                                  !- Zone Cooling Design Supply Air Temperature Difference {deltaC}
  SupplyAirTemperature,                   !- Zone Heating Design Supply Air Temperature Input Method
  40,                                     !- Zone Heating Design Supply Air Temperature {C}
  11.11,                                  !- Zone Heating Design Supply Air Temperature Difference {deltaC}
  0.0085,                                 !- Zone Cooling Design Supply Air Humidity Ratio {kg-H2O/kg-air}
  0.008,                                  !- Zone Heating Design Supply Air Humidity Ratio {kg-H2O/kg-air}
  ,                                       !- Zone Heating Sizing Factor
  ,                                       !- Zone Cooling Sizing Factor
  DesignDay,                              !- Cooling Design Air Flow Method
  ,                                       !- Cooling Design Air Flow Rate {m3/s}
  ,                                       !- Cooling Minimum Air Flow per Zone Floor Area {m3/s-m2}
  ,                                       !- Cooling Minimum Air Flow {m3/s}
  ,                                       !- Cooling Minimum Air Flow Fraction
  DesignDay,                              !- Heating Design Air Flow Method
  ,                                       !- Heating Design Air Flow Rate {m3/s}
  ,                                       !- Heating Maximum Air Flow per Zone Floor Area {m3/s-m2}
  ,                                       !- Heating Maximum Air Flow {m3/s}
  ,                                       !- Heating Maximum Air Flow Fraction
  ,                                       !- Design Zone Air Distribution Effectiveness in Cooling Mode
  ,                                       !- Design Zone Air Distribution Effectiveness in Heating Mode
  No,                                     !- Account for Dedicated Outdoor Air System
  NeutralSupplyAir,                       !- Dedicated Outdoor Air System Control Strategy
  autosize,                               !- Dedicated Outdoor Air Low Setpoint Temperature for Design {C}
  autosize;                               !- Dedicated Outdoor Air High Setpoint Temperature for Design {C}

OS:ZoneHVAC:EquipmentList,
  {5c93b53e-1e04-4f08-93eb-9d4dc0489237}, !- Handle
  Zone HVAC Equipment List 1,             !- Name
  {4c9d352f-c230-414b-8817-831e24673b0a}; !- Thermal Zone

OS:Space,
  {41370096-98b3-44a3-b6bd-c8c6be524d3e}, !- Handle
  MLI Work B end_a - Story Ground,        !- Name
  {fd201ec1-5d7f-479a-8cb4-ef9827e5e903}, !- Space Type Name
  ,                                       !- Default Construction Set Name
  ,                                       !- Default Schedule Set Name
  -0,                                     !- Direction of Relative North {deg}
  -48.1964849407091,                      !- X Origin {m}
  -43.6244849407091,                      !- Y Origin {m}
  0,                                      !- Z Origin {m}
  {0d996dea-6f05-4046-9f60-4d9e9229882e}, !- Building Story Name
  {bceb1cb0-adeb-4d61-aafe-0f3227f51d59}; !- Thermal Zone Name

OS:Surface,
  {d51e50f3-4646-4034-ab80-d0b459d73d29}, !- Handle
  Surface 7,                              !- Name
  Floor,                                  !- Surface Type
  ,                                       !- Construction Name
  {41370096-98b3-44a3-b6bd-c8c6be524d3e}, !- Space Name
  Ground,                                 !- Outside Boundary Condition
  ,                                       !- Outside Boundary Condition Object
  NoSun,                                  !- Sun Exposure
  NoWind,                                 !- Wind Exposure
  ,                                       !- View Factor to Ground
  ,                                       !- Number of Vertices
  7.105427357601e-015, 7.105427357601e-015, 0, !- X,Y,Z Vertex 1 {m}
  7.105427357601e-015, 87.2489698814182, 0, !- X,Y,Z Vertex 2 {m}
  4.572, 87.2489698814182, 0,             !- X,Y,Z Vertex 3 {m}
  4.572, 7.105427357601e-015, 0;          !- X,Y,Z Vertex 4 {m}

OS:Surface,
  {be425763-8057-4261-8743-0d393d4e172f}, !- Handle
  Surface 8,                              !- Name
  Wall,                                   !- Surface Type
  ,                                       !- Construction Name
  {41370096-98b3-44a3-b6bd-c8c6be524d3e}, !- Space Name
  Outdoors,                               !- Outside Boundary Condition
  ,                                       !- Outside Boundary Condition Object
  SunExposed,                             !- Sun Exposure
  WindExposed,                            !- Wind Exposure
  ,                                       !- View Factor to Ground
  ,                                       !- Number of Vertices
  7.105427357601e-015, 87.2489698814182, 10.668, !- X,Y,Z Vertex 1 {m}
  7.105427357601e-015, 87.2489698814182, 0, !- X,Y,Z Vertex 2 {m}
  7.105427357601e-015, 7.105427357601e-015, 0, !- X,Y,Z Vertex 3 {m}
  7.105427357601e-015, 7.105427357601e-015, 10.668; !- X,Y,Z Vertex 4 {m}

OS:Surface,
  {cce6b886-8a5e-4846-ae9b-2eb2fe20edda}, !- Handle
  Surface 9,                              !- Name
  Wall,                                   !- Surface Type
  ,                                       !- Construction Name
  {41370096-98b3-44a3-b6bd-c8c6be524d3e}, !- Space Name
  Surface,                                !- Outside Boundary Condition
  {c55c1147-373b-4045-8225-f1db5d1d5cec}, !- Outside Boundary Condition Object
  NoSun,                                  !- Sun Exposure
  NoWind,                                 !- Wind Exposure
  ,                                       !- View Factor to Ground
  ,                                       !- Number of Vertices
  4.572, 87.2489698814182, 10.668,        !- X,Y,Z Vertex 1 {m}
  4.572, 87.2489698814182, 0,             !- X,Y,Z Vertex 2 {m}
  7.105427357601e-015, 87.2489698814182, 0, !- X,Y,Z Vertex 3 {m}
  7.105427357601e-015, 87.2489698814182, 10.668; !- X,Y,Z Vertex 4 {m}

OS:Surface,
  {5497e4fb-a1c5-4986-aaee-b9ed33a425b7}, !- Handle
  Surface 10,                             !- Name
  Wall,                                   !- Surface Type
  ,                                       !- Construction Name
  {41370096-98b3-44a3-b6bd-c8c6be524d3e}, !- Space Name
  Surface,                                !- Outside Boundary Condition
  {375c9fab-2b75-4de3-800f-577613cec9b2}, !- Outside Boundary Condition Object
  NoSun,                                  !- Sun Exposure
  NoWind,                                 !- Wind Exposure
  ,                                       !- View Factor to Ground
  ,                                       !- Number of Vertices
  4.572, 7.105427357601e-015, 10.668,     !- X,Y,Z Vertex 1 {m}
  4.572, 7.105427357601e-015, 0,          !- X,Y,Z Vertex 2 {m}
  4.572, 87.2489698814182, 0,             !- X,Y,Z Vertex 3 {m}
  4.572, 87.2489698814182, 10.668;        !- X,Y,Z Vertex 4 {m}

OS:Surface,
  {e19c599c-5a2b-4222-9494-15c488a39254}, !- Handle
  Surface 11,                             !- Name
  Wall,                                   !- Surface Type
  ,                                       !- Construction Name
  {41370096-98b3-44a3-b6bd-c8c6be524d3e}, !- Space Name
  Surface,                                !- Outside Boundary Condition
  {3f7b74a2-ea7e-441b-948e-b8307e960173}, !- Outside Boundary Condition Object
  NoSun,                                  !- Sun Exposure
  NoWind,                                 !- Wind Exposure
  ,                                       !- View Factor to Ground
  ,                                       !- Number of Vertices
  7.105427357601e-015, 7.105427357601e-015, 10.668, !- X,Y,Z Vertex 1 {m}
  7.105427357601e-015, 7.105427357601e-015, 0, !- X,Y,Z Vertex 2 {m}
  4.572, 7.105427357601e-015, 0,          !- X,Y,Z Vertex 3 {m}
  4.572, 7.105427357601e-015, 10.668;     !- X,Y,Z Vertex 4 {m}

OS:Surface,
  {ce112048-5df5-49c0-b1df-b7932f163fb2}, !- Handle
  Surface 12,                             !- Name
  RoofCeiling,                            !- Surface Type
  ,                                       !- Construction Name
  {41370096-98b3-44a3-b6bd-c8c6be524d3e}, !- Space Name
  Outdoors,                               !- Outside Boundary Condition
  ,                                       !- Outside Boundary Condition Object
  SunExposed,                             !- Sun Exposure
  WindExposed,                            !- Wind Exposure
  ,                                       !- View Factor to Ground
  ,                                       !- Number of Vertices
  4.572, 7.105427357601e-015, 10.668,     !- X,Y,Z Vertex 1 {m}
  4.572, 87.2489698814182, 10.668,        !- X,Y,Z Vertex 2 {m}
  7.105427357601e-015, 87.2489698814182, 10.668, !- X,Y,Z Vertex 3 {m}
  7.105427357601e-015, 7.105427357601e-015, 10.668; !- X,Y,Z Vertex 4 {m}

OS:ThermalZone,
  {bceb1cb0-adeb-4d61-aafe-0f3227f51d59}, !- Handle
  Zone MLI Work B end_a - Story Ground,   !- Name
  1,                                      !- Multiplier
  ,                                       !- Ceiling Height {m}
  ,                                       !- Volume {m3}
  ,                                       !- Floor Area {m2}
  ,                                       !- Zone Inside Convection Algorithm
  ,                                       !- Zone Outside Convection Algorithm
  ,                                       !- Zone Conditioning Equipment List Name
  {0ca5b323-c786-4944-b369-d3232a9564ce}, !- Zone Air Inlet Port List
  {d530777f-7176-41cc-9e08-8f61850397ca}, !- Zone Air Exhaust Port List
  {aa114891-0317-4219-904b-985d245a1ef1}, !- Zone Air Node Name
  {64aef9eb-5375-437e-a6de-666558da7968}, !- Zone Return Air Port List
  ,                                       !- Primary Daylighting Control Name
  ,                                       !- Fraction of Zone Controlled by Primary Daylighting Control
  ,                                       !- Secondary Daylighting Control Name
  ,                                       !- Fraction of Zone Controlled by Secondary Daylighting Control
  ,                                       !- Illuminance Map Name
  ,                                       !- Group Rendering Name
  ,                                       !- Thermostat Name
  No;                                     !- Use Ideal Air Loads

OS:Node,
  {e4faf7ef-6c2c-4e03-b1d4-41d88343238a}, !- Handle
  Node 2,                                 !- Name
  {aa114891-0317-4219-904b-985d245a1ef1}, !- Inlet Port
  ;                                       !- Outlet Port

OS:Connection,
  {aa114891-0317-4219-904b-985d245a1ef1}, !- Handle
  {10028186-402d-44ce-a65d-1cc240d4353d}, !- Name
  {bceb1cb0-adeb-4d61-aafe-0f3227f51d59}, !- Source Object
  11,                                     !- Outlet Port
  {e4faf7ef-6c2c-4e03-b1d4-41d88343238a}, !- Target Object
  2;                                      !- Inlet Port

OS:PortList,
  {0ca5b323-c786-4944-b369-d3232a9564ce}, !- Handle
  {d9265164-9ce6-44af-bf36-0e6234131149}, !- Name
  {bceb1cb0-adeb-4d61-aafe-0f3227f51d59}; !- HVAC Component

OS:PortList,
  {d530777f-7176-41cc-9e08-8f61850397ca}, !- Handle
  {6e92f683-6914-4310-8fc6-7bddd8d0be1d}, !- Name
  {bceb1cb0-adeb-4d61-aafe-0f3227f51d59}; !- HVAC Component

OS:PortList,
  {64aef9eb-5375-437e-a6de-666558da7968}, !- Handle
  {191d15a0-433a-4768-a87d-8c16a1aca629}, !- Name
  {bceb1cb0-adeb-4d61-aafe-0f3227f51d59}; !- HVAC Component

OS:Sizing:Zone,
  {54f1624e-0123-4365-a7b5-e4cadfe76999}, !- Handle
  {bceb1cb0-adeb-4d61-aafe-0f3227f51d59}, !- Zone or ZoneList Name
  SupplyAirTemperature,                   !- Zone Cooling Design Supply Air Temperature Input Method
  14,                                     !- Zone Cooling Design Supply Air Temperature {C}
  11.11,                                  !- Zone Cooling Design Supply Air Temperature Difference {deltaC}
  SupplyAirTemperature,                   !- Zone Heating Design Supply Air Temperature Input Method
  40,                                     !- Zone Heating Design Supply Air Temperature {C}
  11.11,                                  !- Zone Heating Design Supply Air Temperature Difference {deltaC}
  0.0085,                                 !- Zone Cooling Design Supply Air Humidity Ratio {kg-H2O/kg-air}
  0.008,                                  !- Zone Heating Design Supply Air Humidity Ratio {kg-H2O/kg-air}
  ,                                       !- Zone Heating Sizing Factor
  ,                                       !- Zone Cooling Sizing Factor
  DesignDay,                              !- Cooling Design Air Flow Method
  ,                                       !- Cooling Design Air Flow Rate {m3/s}
  ,                                       !- Cooling Minimum Air Flow per Zone Floor Area {m3/s-m2}
  ,                                       !- Cooling Minimum Air Flow {m3/s}
  ,                                       !- Cooling Minimum Air Flow Fraction
  DesignDay,                              !- Heating Design Air Flow Method
  ,                                       !- Heating Design Air Flow Rate {m3/s}
  ,                                       !- Heating Maximum Air Flow per Zone Floor Area {m3/s-m2}
  ,                                       !- Heating Maximum Air Flow {m3/s}
  ,                                       !- Heating Maximum Air Flow Fraction
  ,                                       !- Design Zone Air Distribution Effectiveness in Cooling Mode
  ,                                       !- Design Zone Air Distribution Effectiveness in Heating Mode
  No,                                     !- Account for Dedicated Outdoor Air System
  NeutralSupplyAir,                       !- Dedicated Outdoor Air System Control Strategy
  autosize,                               !- Dedicated Outdoor Air Low Setpoint Temperature for Design {C}
  autosize;                               !- Dedicated Outdoor Air High Setpoint Temperature for Design {C}

OS:ZoneHVAC:EquipmentList,
  {c0a98c8e-1237-45fc-9430-d63e56de10b5}, !- Handle
  Zone HVAC Equipment List 2,             !- Name
  {bceb1cb0-adeb-4d61-aafe-0f3227f51d59}; !- Thermal Zone

OS:Space,
  {6525b3bb-997d-487d-a5ca-fbe934290359}, !- Handle
  MLI Work C end_a - Story Ground,        !- Name
  {fd201ec1-5d7f-479a-8cb4-ef9827e5e903}, !- Space Type Name
  ,                                       !- Default Construction Set Name
  ,                                       !- Default Schedule Set Name
  -0,                                     !- Direction of Relative North {deg}
  -48.1964849407091,                      !- X Origin {m}
  43.6244849407091,                       !- Y Origin {m}
  0,                                      !- Z Origin {m}
  {0d996dea-6f05-4046-9f60-4d9e9229882e}, !- Building Story Name
  {9ee0e79d-5c6a-42d0-9d80-a081920b90fd}; !- Thermal Zone Name

OS:Surface,
  {1f0d163e-1d52-4fb4-8cb4-f56fc0172cab}, !- Handle
  Surface 13,                             !- Name
  Floor,                                  !- Surface Type
  ,                                       !- Construction Name
  {6525b3bb-997d-487d-a5ca-fbe934290359}, !- Space Name
  Ground,                                 !- Outside Boundary Condition
  ,                                       !- Outside Boundary Condition Object
  NoSun,                                  !- Sun Exposure
  NoWind,                                 !- Wind Exposure
  ,                                       !- View Factor to Ground
  ,                                       !- Number of Vertices
  7.105427357601e-015, -7.105427357601e-015, 0, !- X,Y,Z Vertex 1 {m}
  7.105427357601e-015, 4.57199999999999, 0, !- X,Y,Z Vertex 2 {m}
  4.572, 4.57199999999999, 0,             !- X,Y,Z Vertex 3 {m}
  4.572, -7.105427357601e-015, 0;         !- X,Y,Z Vertex 4 {m}

OS:Surface,
  {e333a652-e3af-4f5b-bfa0-c6975e669cf6}, !- Handle
  Surface 14,                             !- Name
  Wall,                                   !- Surface Type
  ,                                       !- Construction Name
  {6525b3bb-997d-487d-a5ca-fbe934290359}, !- Space Name
  Outdoors,                               !- Outside Boundary Condition
  ,                                       !- Outside Boundary Condition Object
  SunExposed,                             !- Sun Exposure
  WindExposed,                            !- Wind Exposure
  ,                                       !- View Factor to Ground
  ,                                       !- Number of Vertices
  7.105427357601e-015, 4.57199999999999, 10.668, !- X,Y,Z Vertex 1 {m}
  7.105427357601e-015, 4.57199999999999, 0, !- X,Y,Z Vertex 2 {m}
  7.105427357601e-015, -7.105427357601e-015, 0, !- X,Y,Z Vertex 3 {m}
  7.105427357601e-015, -7.105427357601e-015, 10.668; !- X,Y,Z Vertex 4 {m}

OS:Surface,
  {a7fe6b1d-fa3d-44f9-b40d-0cfd29434d14}, !- Handle
  Surface 15,                             !- Name
  Wall,                                   !- Surface Type
  ,                                       !- Construction Name
  {6525b3bb-997d-487d-a5ca-fbe934290359}, !- Space Name
  Outdoors,                               !- Outside Boundary Condition
  ,                                       !- Outside Boundary Condition Object
  SunExposed,                             !- Sun Exposure
  WindExposed,                            !- Wind Exposure
  ,                                       !- View Factor to Ground
  ,                                       !- Number of Vertices
  4.572, 4.57199999999999, 10.668,        !- X,Y,Z Vertex 1 {m}
  4.572, 4.57199999999999, 0,             !- X,Y,Z Vertex 2 {m}
  7.105427357601e-015, 4.57199999999999, 0, !- X,Y,Z Vertex 3 {m}
  7.105427357601e-015, 4.57199999999999, 10.668; !- X,Y,Z Vertex 4 {m}

OS:Surface,
  {27824d2d-13d4-46a3-8965-0abdaa6a569b}, !- Handle