
OS:Version,
  {eccc45cc-6a9a-447c-9d9d-5457cd55a78a}, !- Handle
  2.7.0;                                  !- Version Identifier

OS:SpaceType,
  {bfbc3d92-c8a1-4713-8ebc-2fbdc34d2885}, !- Handle
  Mtl OfficeGeneral,                      !- Name
  ,                                       !- Default Construction Set Name
  ,                                       !- Default Schedule Set Name
  ,                                       !- Group Rendering Name
  ,                                       !- Design Specification Outdoor Air Object Name
  ,                                       !- Standards Template
  Mtl,                                    !- Standards Building Type
  OfficeGeneral;                          !- Standards Space Type

OS:SpaceType,
  {52e90902-faf4-4482-ad53-c13eab55c4d2}, !- Handle
  Mtl GuestRmCorrid,                      !- Name
  ,                                       !- Default Construction Set Name
  ,                                       !- Default Schedule Set Name
  ,                                       !- Group Rendering Name
  ,                                       !- Design Specification Outdoor Air Object Name
  ,                                       !- Standards Template
  Mtl,                                    !- Standards Building Type
  GuestRmCorrid;                          !- Standards Space Type

OS:SpaceType,
  {18b16dd4-a3f5-440d-a331-d1b708f15267}, !- Handle
  Mtl Laundry,                            !- Name
  ,                                       !- Default Construction Set Name
  ,                                       !- Default Schedule Set Name
  ,                                       !- Group Rendering Name
  ,                                       !- Design Specification Outdoor Air Object Name
  ,                                       !- Standards Template
  Mtl,                                    !- Standards Building Type
  Laundry;                                !- Standards Space Type

OS:SpaceType,
  {98ae1c21-d7d1-437a-abb0-802969efde91}, !- Handle
  Mtl GuestRmOcc,                         !- Name
  ,                                       !- Default Construction Set Name
  ,                                       !- Default Schedule Set Name
  ,                                       !- Group Rendering Name
  ,                                       !- Design Specification Outdoor Air Object Name
  ,                                       !- Standards Template
  Mtl,                                    !- Standards Building Type
  GuestRmOcc;                             !- Standards Space Type

OS:Building,
  {f5896fd2-9fc0-4fb4-a0c4-25045facc716}, !- Handle
  DEER Pre-1975|Mtl,                      !- Name
  ,                                       !- Building Sector Type
  ,                                       !- North Axis {deg}
  ,                                       !- Nominal Floor to Floor Height {m}
  ,                                       !- Space Type Name
  ,                                       !- Default Construction Set Name
  ;                                       !- Default Schedule Set Name

OS:Site,
  {1f744b78-5227-40ca-b3a6-731d11db5bf9}, !- Handle
  Site 1,                                 !- Name
  ,                                       !- Latitude {deg}
  ,                                       !- Longitude {deg}
  ,                                       !- Time Zone {hr}
  ,                                       !- Elevation {m}
  ;                                       !- Terrain

OS:BuildingStory,
  {8d41a93d-937b-4c2c-8e6b-ff598fe8bfef}, !- Handle
  Story Ground,                           !- Name
  0,                                      !- Nominal Z Coordinate {m}
  2.7432,                                 !- Nominal Floor to Floor Height {m}
  ,                                       !- Default Construction Set Name
  ,                                       !- Default Schedule Set Name
  ;                                       !- Group Rendering Name

OS:Space,
  {d46237fa-8a50-42a7-9645-7d6a52ef02c8}, !- Handle
  Mtl GuestRmCorrid A end_a - Story Ground, !- Name
  {52e90902-faf4-4482-ad53-c13eab55c4d2}, !- Space Type Name
  ,                                       !- Default Construction Set Name
  ,                                       !- Default Schedule Set Name
  -0,                                     !- Direction of Relative North {deg}
  -42.1419207009837,                      !- X Origin {m}
  -8.26312170607524,                      !- Y Origin {m}
  0,                                      !- Z Origin {m}
  {8d41a93d-937b-4c2c-8e6b-ff598fe8bfef}, !- Building Story Name
  {94c6ebae-ba6c-4914-ae4c-0b4ab47dcbdb}; !- Thermal Zone Name

OS:Surface,
  {a892a771-3d1e-45bf-9d81-1b4def916222}, !- Handle
  Surface 1,                              !- Name
  Floor,                                  !- Surface Type
  ,                                       !- Construction Name
  {d46237fa-8a50-42a7-9645-7d6a52ef02c8}, !- Space Name
  Ground,                                 !- Outside Boundary Condition
  ,                                       !- Outside Boundary Condition Object
  NoSun,                                  !- Sun Exposure
  NoWind,                                 !- Wind Exposure
  ,                                       !- View Factor to Ground
  ,                                       !- Number of Vertices
  2.1316282072803e-014, -1.77635683940025e-015, 0, !- X,Y,Z Vertex 1 {m}
  2.1316282072803e-014, 4.572, 0,         !- X,Y,Z Vertex 2 {m}
  4.57200000000002, 4.572, 0,             !- X,Y,Z Vertex 3 {m}
  4.57200000000002, -1.77635683940025e-015, 0; !- X,Y,Z Vertex 4 {m}

OS:Surface,
  {17a5c638-e5fe-413d-b752-4fef381d70c8}, !- Handle
  Surface 2,                              !- Name
  Wall,                                   !- Surface Type
  ,                                       !- Construction Name
  {d46237fa-8a50-42a7-9645-7d6a52ef02c8}, !- Space Name
  Outdoors,                               !- Outside Boundary Condition
  ,                                       !- Outside Boundary Condition Object
  SunExposed,                             !- Sun Exposure
  WindExposed,                            !- Wind Exposure
  ,                                       !- View Factor to Ground
  ,                                       !- Number of Vertices
  2.1316282072803e-014, 4.572, 2.7432,    !- X,Y,Z Vertex 1 {m}
  2.1316282072803e-014, 4.572, 0,         !- X,Y,Z Vertex 2 {m}
  2.1316282072803e-014, -1.77635683940025e-015, 0, !- X,Y,Z Vertex 3 {m}
  2.1316282072803e-014, -1.77635683940025e-015, 2.7432; !- X,Y,Z Vertex 4 {m}

OS:Surface,
  {a88a358f-cf1a-4ac7-ad0b-09e77847a087}, !- Handle
  Surface 3,                              !- Name
  Wall,                                   !- Surface Type
  ,                                       !- Construction Name
  {d46237fa-8a50-42a7-9645-7d6a52ef02c8}, !- Space Name
  Surface,                                !- Outside Boundary Condition
  {475aa2f0-1a17-4a88-b29c-b014bf6dee71}, !- Outside Boundary Condition Object
  NoSun,                                  !- Sun Exposure
  NoWind,                                 !- Wind Exposure
  ,                                       !- View Factor to Ground
  ,                                       !- Number of Vertices
  4.57200000000002, 4.572, 2.7432,        !- X,Y,Z Vertex 1 {m}
  4.57200000000002, 4.572, 0,             !- X,Y,Z Vertex 2 {m}
  2.1316282072803e-014, 4.572, 0,         !- X,Y,Z Vertex 3 {m}
  2.1316282072803e-014, 4.572, 2.7432;    !- X,Y,Z Vertex 4 {m}

OS:Surface,
  {57eccc58-1239-420d-812a-fabf9a6a3d8b}, !- Handle
  Surface 4,                              !- Name
  Wall,                                   !- Surface Type
  ,                                       !- Construction Name
  {d46237fa-8a50-42a7-9645-7d6a52ef02c8}, !- Space Name
  Surface,                                !- Outside Boundary Condition
  {1a14b9f4-743d-4004-823a-6299e5cc7190}, !- Outside Boundary Condition Object
  NoSun,                                  !- Sun Exposure
  NoWind,                                 !- Wind Exposure
  ,                                       !- View Factor to Ground
  ,                                       !- Number of Vertices
  4.57200000000002, -1.77635683940025e-015, 2.7432, !- X,Y,Z Vertex 1 {m}
  4.57200000000002, -1.77635683940025e-015, 0, !- X,Y,Z Vertex 2 {m}
  4.57200000000002, 4.572, 0,             !- X,Y,Z Vertex 3 {m}
  4.57200000000002, 4.572, 2.7432;        !- X,Y,Z Vertex 4 {m}

OS:Surface,
  {14852118-e6e1-41be-9679-aab3310f59fd}, !- Handle
  Surface 5,                              !- Name
  Wall,                                   !- Surface Type
  ,                                       !- Construction Name
  {d46237fa-8a50-42a7-9645-7d6a52ef02c8}, !- Space Name
  Outdoors,                               !- Outside Boundary Condition
  ,                                       !- Outside Boundary Condition Object
  SunExposed,                             !- Sun Exposure
  WindExposed,                            !- Wind Exposure
  ,                                       !- View Factor to Ground
  ,                                       !- Number of Vertices
  2.1316282072803e-014, -1.77635683940025e-015, 2.7432, !- X,Y,Z Vertex 1 {m}
  2.1316282072803e-014, -1.77635683940025e-015, 0, !- X,Y,Z Vertex 2 {m}
  4.57200000000002, -1.77635683940025e-015, 0, !- X,Y,Z Vertex 3 {m}
  4.57200000000002, -1.77635683940025e-015, 2.7432; !- X,Y,Z Vertex 4 {m}

OS:Surface,
  {2336e937-759b-4eb7-82b7-29b21ec1be43}, !- Handle
  Surface 6,                              !- Name
  RoofCeiling,                            !- Surface Type
  ,                                       !- Construction Name
  {d46237fa-8a50-42a7-9645-7d6a52ef02c8}, !- Space Name
  Surface,                                !- Outside Boundary Condition
  {55f329b7-36d0-4424-a561-78422c5de52a}, !- Outside Boundary Condition Object
  NoSun,                                  !- Sun Exposure
  NoWind,                                 !- Wind Exposure
  ,                                       !- View Factor to Ground
  ,                                       !- Number of Vertices
  4.57200000000002, -1.77635683940025e-015, 2.7432, !- X,Y,Z Vertex 1 {m}
  4.57200000000002, 4.572, 2.7432,        !- X,Y,Z Vertex 2 {m}
  2.1316282072803e-014, 4.572, 2.7432,    !- X,Y,Z Vertex 3 {m}
  2.1316282072803e-014, -1.77635683940025e-015, 2.7432; !- X,Y,Z Vertex 4 {m}

OS:ThermalZone,
  {94c6ebae-ba6c-4914-ae4c-0b4ab47dcbdb}, !- Handle
  Zone Mtl GuestRmCorrid A end_a - Story Ground, !- Name
  1,                                      !- Multiplier
  ,                                       !- Ceiling Height {m}
  ,                                       !- Volume {m3}
  ,                                       !- Floor Area {m2}
  ,                                       !- Zone Inside Convection Algorithm
  ,                                       !- Zone Outside Convection Algorithm
  ,                                       !- Zone Conditioning Equipment List Name
  {354a69e1-2b82-4a40-b909-648ce02ad974}, !- Zone Air Inlet Port List
  {d833337f-e437-458c-a975-31e437abbc6e}, !- Zone Air Exhaust Port List
  {c91c5bb3-dab2-4bda-b65e-add1360f8112}, !- Zone Air Node Name
  {1c6288f0-2c63-49af-9e4d-cda843fbc5c0}, !- Zone Return Air Port List
  ,                                       !- Primary Daylighting Control Name
  ,                                       !- Fraction of Zone Controlled by Primary Daylighting Control
  ,                                       !- Secondary Daylighting Control Name
  ,                                       !- Fraction of Zone Controlled by Secondary Daylighting Control
  ,                                       !- Illuminance Map Name
  ,                                       !- Group Rendering Name
  ,                                       !- Thermostat Name
  No;                                     !- Use Ideal Air Loads

OS:Node,
  {3f475ba2-d98c-41cc-b265-7036c2e91e8b}, !- Handle
  Node 1,                                 !- Name
  {c91c5bb3-dab2-4bda-b65e-add1360f8112}, !- Inlet Port
  ;                                       !- Outlet Port

OS:Connection,
  {c91c5bb3-dab2-4bda-b65e-add1360f8112}, !- Handle
  {04c65699-3f3f-42a7-90c8-122df7049271}, !- Name
  {94c6ebae-ba6c-4914-ae4c-0b4ab47dcbdb}, !- Source Object
  11,                                     !- Outlet Port
  {3f475ba2-d98c-41cc-b265-7036c2e91e8b}, !- Target Object
  2;                                      !- Inlet Port

OS:PortList,
  {354a69e1-2b82-4a40-b909-648ce02ad974}, !- Handle
  {bd551909-1703-4f42-b6a7-f7d73a05940f}, !- Name
  {94c6ebae-ba6c-4914-ae4c-0b4ab47dcbdb}; !- HVAC Component

OS:PortList,
  {d833337f-e437-458c-a975-31e437abbc6e}, !- Handle
  {04a32275-ee14-4ca7-8b9b-bc123911632d}, !- Name
  {94c6ebae-ba6c-4914-ae4c-0b4ab47dcbdb}; !- HVAC Component

OS:PortList,
  {1c6288f0-2c63-49af-9e4d-cda843fbc5c0}, !- Handle
  {a8b1ad74-cbad-489a-9827-30f1cc378605}, !- Name
  {94c6ebae-ba6c-4914-ae4c-0b4ab47dcbdb}; !- HVAC Component

OS:Sizing:Zone,
  {a1a89e5f-2aaf-432a-adc9-c4000dadada1}, !- Handle
  {94c6ebae-ba6c-4914-ae4c-0b4ab47dcbdb}, !- Zone or ZoneList Name
  SupplyAirTemperature,                   !- Zone Cooling Design Supply Air Temperature Input Method
  14,                                     !- Zone Cooling Design Supply Air Temperature {C}
  11.11,                                  !- Zone Cooling Design Supply Air Temperature Difference {deltaC}
  SupplyAirTemperature,                   !- Zone Heating Design Supply Air Temperature Input Method
  40,                                     !- Zone Heating Design Supply Air Temperature {C}
  11.11,                                  !- Zone Heating Design Supply Air Temperature Difference {deltaC}
  0.0085,                                 !- Zone Cooling Design Supply Air Humidity Ratio {kg-H2O/kg-air}
  0.008,                                  !- Zone Heating Design Supply Air Humidity Ratio {kg-H2O/kg-air}
  ,                                       !- Zone Heating Sizing Factor
  ,                                       !- Zone Cooling Sizing Factor
  DesignDay,                              !- Cooling Design Air Flow Method
  ,                                       !- Cooling Design Air Flow Rate {m3/s}
  ,                                       !- Cooling Minimum Air Flow per Zone Floor Area {m3/s-m2}
  ,                                       !- Cooling Minimum Air Flow {m3/s}
  ,                                       !- Cooling Minimum Air Flow Fraction
  DesignDay,                              !- Heating Design Air Flow Method
  ,                                       !- Heating Design Air Flow Rate {m3/s}
  ,                                       !- Heating Maximum Air Flow per Zone Floor Area {m3/s-m2}
  ,                                       !- Heating Maximum Air Flow {m3/s}
  ,                                       !- Heating Maximum Air Flow Fraction
  ,                                       !- Design Zone Air Distribution Effectiveness in Cooling Mode
  ,                                       !- Design Zone Air Distribution Effectiveness in Heating Mode
  No,                                     !- Account for Dedicated Outdoor Air System
  NeutralSupplyAir,                       !- Dedicated Outdoor Air System Control Strategy
  autosize,                               !- Dedicated Outdoor Air Low Setpoint Temperature for Design {C}
  autosize;                               !- Dedicated Outdoor Air High Setpoint Temperature for Design {C}

OS:ZoneHVAC:EquipmentList,
  {f94cb261-1c07-440f-9254-9de1e0559570}, !- Handle
  Zone HVAC Equipment List 1,             !- Name
  {94c6ebae-ba6c-4914-ae4c-0b4ab47dcbdb}; !- Thermal Zone

OS:Space,
  {67e30629-4b29-4371-98fd-b4b20a9e2e89}, !- Handle
  Mtl GuestRmCorrid B end_a - Story Ground, !- Name
  {52e90902-faf4-4482-ad53-c13eab55c4d2}, !- Space Type Name
  ,                                       !- Default Construction Set Name
  ,                                       !- Default Schedule Set Name
  -0,                                     !- Direction of Relative North {deg}
  -42.1419207009837,                      !- X Origin {m}
  -3.69112170607524,                      !- Y Origin {m}
  0,                                      !- Z Origin {m}
  {8d41a93d-937b-4c2c-8e6b-ff598fe8bfef}, !- Building Story Name
  {4803cad3-606f-4e50-8402-fd4fec855c6b}; !- Thermal Zone Name

OS:Surface,
  {aedd94cc-6cbb-41b4-80fd-683d4657ffc2}, !- Handle
  Surface 7,                              !- Name
  Floor,                                  !- Surface Type
  ,                                       !- Construction Name
  {67e30629-4b29-4371-98fd-b4b20a9e2e89}, !- Space Name
  Ground,                                 !- Outside Boundary Condition
  ,                                       !- Outside Boundary Condition Object
  NoSun,                                  !- Sun Exposure
  NoWind,                                 !- Wind Exposure
  ,                                       !- View Factor to Ground
  ,                                       !- Number of Vertices
  2.1316282072803e-014, -8.88178419700125e-016, 0, !- X,Y,Z Vertex 1 {m}
  2.1316282072803e-014, 7.38224341215048, 0, !- X,Y,Z Vertex 2 {m}
  4.57200000000002, 7.38224341215048, 0,  !- X,Y,Z Vertex 3 {m}
  4.57200000000002, -8.88178419700125e-016, 0; !- X,Y,Z Vertex 4 {m}

OS:Surface,
  {a952d62e-4d4b-4a5b-a499-740818b5359f}, !- Handle
  Surface 8,                              !- Name
  Wall,                                   !- Surface Type
  ,                                       !- Construction Name
  {67e30629-4b29-4371-98fd-b4b20a9e2e89}, !- Space Name
  Outdoors,                               !- Outside Boundary Condition
  ,                                       !- Outside Boundary Condition Object
  SunExposed,                             !- Sun Exposure
  WindExposed,                            !- Wind Exposure
  ,                                       !- View Factor to Ground
  ,                                       !- Number of Vertices
  2.1316282072803e-014, 7.38224341215048, 2.7432, !- X,Y,Z Vertex 1 {m}
  2.1316282072803e-014, 7.38224341215048, 0, !- X,Y,Z Vertex 2 {m}
  2.1316282072803e-014, -8.88178419700125e-016, 0, !- X,Y,Z Vertex 3 {m}
  2.1316282072803e-014, -8.88178419700125e-016, 2.7432; !- X,Y,Z Vertex 4 {m}

OS:Surface,
  {3beeb94d-e64d-4a88-8830-b00d4b930db0}, !- Handle
  Surface 9,                              !- Name
  Wall,                                   !- Surface Type
  ,                                       !- Construction Name
  {67e30629-4b29-4371-98fd-b4b20a9e2e89}, !- Space Name
  Surface,                                !- Outside Boundary Condition
  {63f4a1c2-209e-4058-974b-0aeb158ff634}, !- Outside Boundary Condition Object
  NoSun,                                  !- Sun Exposure
  NoWind,                                 !- Wind Exposure
  ,                                       !- View Factor to Ground
  ,                                       !- Number of Vertices
  4.57200000000002, 7.38224341215048, 2.7432, !- X,Y,Z Vertex 1 {m}
  4.57200000000002, 7.38224341215048, 0,  !- X,Y,Z Vertex 2 {m}
  2.1316282072803e-014, 7.38224341215048, 0, !- X,Y,Z Vertex 3 {m}
  2.1316282072803e-014, 7.38224341215048, 2.7432; !- X,Y,Z Vertex 4 {m}

OS:Surface,
  {8cf97f8d-26a9-481b-90a9-d591a5e9dc03}, !- Handle
  Surface 10,                             !- Name
  Wall,                                   !- Surface Type
  ,                                       !- Construction Name
  {67e30629-4b29-4371-98fd-b4b20a9e2e89}, !- Space Name
  Surface,                                !- Outside Boundary Condition
  {70a38fc2-3871-46bd-be10-f305e663a67e}, !- Outside Boundary Condition Object
  NoSun,                                  !- Sun Exposure
  NoWind,                                 !- Wind Exposure
  ,                                       !- View Factor to Ground
  ,                                       !- Number of Vertices
  4.57200000000002, -8.88178419700125e-016, 2.7432, !- X,Y,Z Vertex 1 {m}
  4.57200000000002, -8.88178419700125e-016, 0, !- X,Y,Z Vertex 2 {m}
  4.57200000000002, 7.38224341215048, 0,  !- X,Y,Z Vertex 3 {m}
  4.57200000000002, 7.38224341215048, 2.7432; !- X,Y,Z Vertex 4 {m}

OS:Surface,
  {475aa2f0-1a17-4a88-b29c-b014bf6dee71}, !- Handle
  Surface 11,                             !- Name
  Wall,                                   !- Surface Type
  ,                                       !- Construction Name
  {67e30629-4b29-4371-98fd-b4b20a9e2e89}, !- Space Name
  Surface,                                !- Outside Boundary Condition
  {a88a358f-cf1a-4ac7-ad0b-09e77847a087}, !- Outside Boundary Condition Object
  NoSun,                                  !- Sun Exposure
  NoWind,                                 !- Wind Exposure
  ,                                       !- View Factor to Ground
  ,                                       !- Number of Vertices
  2.1316282072803e-014, -8.88178419700125e-016, 2.7432, !- X,Y,Z Vertex 1 {m}
  2.1316282072803e-014, -8.88178419700125e-016, 0, !- X,Y,Z Vertex 2 {m}
  4.57200000000002, -8.88178419700125e-016, 0, !- X,Y,Z Vertex 3 {m}
  4.57200000000002, -8.88178419700125e-016, 2.7432; !- X,Y,Z Vertex 4 {m}

OS:Surface,
  {b0608f57-0571-4c2b-949f-558e69b04221}, !- Handle
  Surface 12,                             !- Name
  RoofCeiling,                            !- Surface Type
  ,                                       !- Construction Name
  {67e30629-4b29-4371-98fd-b4b20a9e2e89}, !- Space Name
  Surface,                                !- Outside Boundary Condition
  {57ab9a58-b8ac-42d8-9542-fb13b07c96f1}, !- Outside Boundary Condition Object
  NoSun,                                  !- Sun Exposure
  NoWind,                                 !- Wind Exposure
  ,                                       !- View Factor to Ground
  ,                                       !- Number of Vertices
  4.57200000000002, -8.88178419700125e-016, 2.7432, !- X,Y,Z Vertex 1 {m}
  4.57200000000002, 7.38224341215048, 2.7432, !- X,Y,Z Vertex 2 {m}
  2.1316282072803e-014, 7.38224341215048, 2.7432, !- X,Y,Z Vertex 3 {m}
  2.1316282072803e-014, -8.88178419700125e-016, 2.7432; !- X,Y,Z Vertex 4 {m}

OS:ThermalZone,
  {4803cad3-606f-4e50-8402-fd4fec855c6b}, !- Handle
  Zone Mtl GuestRmCorrid B end_a - Story Ground, !- Name
  1,                                      !- Multiplier
  ,                                       !- Ceiling Height {m}
  ,                                       !- Volume {m3}
  ,                                       !- Floor Area {m2}
  ,                                       !- Zone Inside Convection Algorithm
  ,                                       !- Zone Outside Convection Algorithm
  ,                                       !- Zone Conditioning Equipment List Name
  {bc36e07c-242c-4a2f-b242-da4f0e38f81e}, !- Zone Air Inlet Port List
  {26121b7e-611c-4bf1-836c-9fe53148ef57}, !- Zone Air Exhaust Port List
  {740fde9c-0f4d-4112-beff-66556b2ca7bd}, !- Zone Air Node Name
  {19796cff-6c78-480e-9b4d-944ad8036e6a}, !- Zone Return Air Port List
  ,                                       !- Primary Daylighting Control Name
  ,                                       !- Fraction of Zone Controlled by Primary Daylighting Control
  ,                                       !- Secondary Daylighting Control Name
  ,                                       !- Fraction of Zone Controlled by Secondary Daylighting Control
  ,                                       !- Illuminance Map Name
  ,                                       !- Group Rendering Name
  ,                                       !- Thermostat Name
  No;                                     !- Use Ideal Air Loads

OS:Node,
  {3359b7f0-29f5-4b77-889a-1491c978834b}, !- Handle
  Node 2,                                 !- Name
  {740fde9c-0f4d-4112-beff-66556b2ca7bd}, !- Inlet Port
  ;                                       !- Outlet Port

OS:Connection,
  {740fde9c-0f4d-4112-beff-66556b2ca7bd}, !- Handle
  {e0b9bf55-cd02-48b7-b798-cbd01ae6a202}, !- Name
  {4803cad3-606f-4e50-8402-fd4fec855c6b}, !- Source Object
  11,                                     !- Outlet Port
  {3359b7f0-29f5-4b77-889a-1491c978834b}, !- Target Object
  2;                                      !- Inlet Port

OS:PortList,
  {bc36e07c-242c-4a2f-b242-da4f0e38f81e}, !- Handle
  {adabcb4b-571d-4e5a-bc15-60551aa6b0bc}, !- Name
  {4803cad3-606f-4e50-8402-fd4fec855c6b}; !- HVAC Component

OS:PortList,
  {26121b7e-611c-4bf1-836c-9fe53148ef57}, !- Handle
  {6238473c-a73c-4407-b1a9-f73124a56690}, !- Name
  {4803cad3-606f-4e50-8402-fd4fec855c6b}; !- HVAC Component

OS:PortList,
  {19796cff-6c78-480e-9b4d-944ad8036e6a}, !- Handle
  {7671f73c-1c57-4814-9539-4b463165ba12}, !- Name
  {4803cad3-606f-4e50-8402-fd4fec855c6b}; !- HVAC Component

OS:Sizing:Zone,
  {b4b73be3-13cc-408b-8d11-247fcfac8c4d}, !- Handle
  {4803cad3-606f-4e50-8402-fd4fec855c6b}, !- Zone or ZoneList Name
  SupplyAirTemperature,                   !- Zone Cooling Design Supply Air Temperature Input Method
  14,                                     !- Zone Cooling Design Supply Air Temperature {C}
  11.11,                                  !- Zone Cooling Design Supply Air Temperature Difference {deltaC}
  SupplyAirTemperature,                   !- Zone Heating Design Supply Air Temperature Input Method
  40,                                     !- Zone Heating Design Supply Air Temperature {C}
  11.11,                                  !- Zone Heating Design Supply Air Temperature Difference {deltaC}
  0.0085,                                 !- Zone Cooling Design Supply Air Humidity Ratio {kg-H2O/kg-air}
  0.008,                                  !- Zone Heating Design Supply Air Humidity Ratio {kg-H2O/kg-air}
  ,                                       !- Zone Heating Sizing Factor
  ,                                       !- Zone Cooling Sizing Factor
  DesignDay,                              !- Cooling Design Air Flow Method
  ,                                       !- Cooling Design Air Flow Rate {m3/s}
  ,                                       !- Cooling Minimum Air Flow per Zone Floor Area {m3/s-m2}
  ,                                       !- Cooling Minimum Air Flow {m3/s}
  ,                                       !- Cooling Minimum Air Flow Fraction
  DesignDay,                              !- Heating Design Air Flow Method
  ,                                       !- Heating Design Air Flow Rate {m3/s}
  ,                                       !- Heating Maximum Air Flow per Zone Floor Area {m3/s-m2}
  ,                                       !- Heating Maximum Air Flow {m3/s}
  ,                                       !- Heating Maximum Air Flow Fraction
  ,                                       !- Design Zone Air Distribution Effectiveness in Cooling Mode
  ,                                       !- Design Zone Air Distribution Effectiveness in Heating Mode
  No,                                     !- Account for Dedicated Outdoor Air System
  NeutralSupplyAir,                       !- Dedicated Outdoor Air System Control Strategy
  autosize,                               !- Dedicated Outdoor Air Low Setpoint Temperature for Design {C}
  autosize;                               !- Dedicated Outdoor Air High Setpoint Temperature for Design {C}

OS:ZoneHVAC:EquipmentList,
  {5bcc1e3f-8d18-4907-a7aa-acca15c264d7}, !- Handle
  Zone HVAC Equipment List 2,             !- Name
  {4803cad3-606f-4e50-8402-fd4fec855c6b}; !- Thermal Zone

OS:Space,
  {41424ac8-be01-44e2-b151-f1fd45e3a665}, !- Handle
  Mtl GuestRmCorrid C end_a - Story Ground, !- Name
  {52e90902-faf4-4482-ad53-c13eab55c4d2}, !- Space Type Name
  ,                                       !- Default Construction Set Name
  ,                                       !- Default Schedule Set Name
  -0,                                     !- Direction of Relative North {deg}
  -42.1419207009837,                      !- X Origin {m}
  3.69112170607524,                       !- Y Origin {m}
  0,                                      !- Z Origin {m}
  {8d41a93d-937b-4c2c-8e6b-ff598fe8bfef}, !- Building Story Name
  {8dfe7ea5-bec9-4b6e-bdb7-2c4b17f64b87}; !- Thermal Zone Name

OS:Surface,
  {27b999c6-2787-400c-91a5-62892ee5cf0a}, !- Handle
  Surface 13,                             !- Name
  Floor,                                  !- Surface Type
  ,                                       !- Construction Name
  {41424ac8-be01-44e2-b151-f1fd45e3a665}, !- Space Name
  Ground,                                 !- Outside Boundary Condition
  ,                                       !- Outside Boundary Condition Object
  NoSun,                                  !- Sun Exposure
  NoWind,                                 !- Wind Exposure
  ,                                       !- View Factor to Ground
  ,                                       !- Number of Vertices
  2.1316282072803e-014, 8.88178419700125e-016, 0, !- X,Y,Z Vertex 1 {m}
  2.1316282072803e-014, 4.572, 0,         !- X,Y,Z Vertex 2 {m}
  4.57200000000002, 4.572, 0,             !- X,Y,Z Vertex 3 {m}
  4.57200000000002, 8.88178419700125e-016, 0; !- X,Y,Z Vertex 4 {m}

OS:Surface,
  {d878db0c-ea26-479e-975c-dd47a077c83b}, !- Handle
  Surface 14,                             !- Name
  Wall,                                   !- Surface Type
  ,                                       !- Construction Name
  {41424ac8-be01-44e2-b151-f1fd45e3a665}, !- Space Name
  Outdoors,                               !- Outside Boundary Condition
  ,                                       !- Outside Boundary Condition Object
  SunExposed,                             !- Sun Exposure
  WindExposed,                            !- Wind Exposure
  ,                                       !- View Factor to Ground