
OS:Version,
  {43623ce0-4bb4-48b2-a570-1bc3720ff460}, !- Handle
  2.7.0;                                  !- Version Identifier

OS:SpaceType,
  {1472aecb-0c0f-4f8b-a944-b23fc7983549}, !- Handle
  Nrs CorridorStairway,                   !- Name
  ,                                       !- Default Construction Set Name
  ,                                       !- Default Schedule Set Name
  ,                                       !- Group Rendering Name
  ,                                       !- Design Specification Outdoor Air Object Name
  ,                                       !- Standards Template
  Nrs,                                    !- Standards Building Type
  CorridorStairway;                       !- Standards Space Type

OS:SpaceType,
  {9facac00-6483-4bc0-8dce-c8a8ce7c56ae}, !- Handle
  Nrs Dining,                             !- Name
  ,                                       !- Default Construction Set Name
  ,                                       !- Default Schedule Set Name
  ,                                       !- Group Rendering Name
  ,                                       !- Design Specification Outdoor Air Object Name
  ,                                       !- Standards Template
  Nrs,                                    !- Standards Building Type
  Dining;                                 !- Standards Space Type

OS:SpaceType,
  {c76d18b0-6741-4818-b88b-692092fa41b0}, !- Handle
  Nrs Kitchen,                            !- Name
  ,                                       !- Default Construction Set Name
  ,                                       !- Default Schedule Set Name
  ,                                       !- Group Rendering Name
  ,                                       !- Design Specification Outdoor Air Object Name
  ,                                       !- Standards Template
  Nrs,                                    !- Standards Building Type
  Kitchen;                                !- Standards Space Type

OS:SpaceType,
  {e65db1ee-cd06-410f-9010-496ae8dbe286}, !- Handle
  Nrs OfficeGeneral,                      !- Name
  ,                                       !- Default Construction Set Name
  ,                                       !- Default Schedule Set Name
  ,                                       !- Group Rendering Name
  ,                                       !- Design Specification Outdoor Air Object Name
  ,                                       !- Standards Template
  Nrs,                                    !- Standards Building Type
  OfficeGeneral;                          !- Standards Space Type

OS:SpaceType,
  {b3b15d15-4941-4dd1-a380-4f697b49fc7d}, !- Handle
  Nrs PatientRoom,                        !- Name
  ,                                       !- Default Construction Set Name
  ,                                       !- Default Schedule Set Name
  ,                                       !- Group Rendering Name
  ,                                       !- Design Specification Outdoor Air Object Name
  ,                                       !- Standards Template
  Nrs,                                    !- Standards Building Type
  PatientRoom;                            !- Standards Space Type

OS:Building,
  {72d1c492-d2cb-4338-af17-04e2464a0d55}, !- Handle
  DEER Pre-1975|Nrs,                      !- Name
  ,                                       !- Building Sector Type
  ,                                       !- North Axis {deg}
  ,                                       !- Nominal Floor to Floor Height {m}
  ,                                       !- Space Type Name
  ,                                       !- Default Construction Set Name
  ;                                       !- Default Schedule Set Name

OS:Site,
  {221e4ec9-7609-482a-a0d4-a3cc1443b3c3}, !- Handle
  Site 1,                                 !- Name
  ,                                       !- Latitude {deg}
  ,                                       !- Longitude {deg}
  ,                                       !- Time Zone {hr}
  ,                                       !- Elevation {m}
  ;                                       !- Terrain

OS:BuildingStory,
  {0b7dce74-c70b-4bb4-9b63-f4e44fdb1a7a}, !- Handle
  Story Ground,                           !- Name
  0,                                      !- Nominal Z Coordinate {m}
  3.9624,                                 !- Nominal Floor to Floor Height {m}
  ,                                       !- Default Construction Set Name
  ,                                       !- Default Schedule Set Name
  ;                                       !- Group Rendering Name

OS:Space,
  {35daa83b-cfe8-4864-8b6e-7471a33f52b5}, !- Handle
  Nrs PatientRoom A end_a - Story Ground, !- Name
  {b3b15d15-4941-4dd1-a380-4f697b49fc7d}, !- Space Type Name
  ,                                       !- Default Construction Set Name
  ,                                       !- Default Schedule Set Name
  -0,                                     !- Direction of Relative North {deg}
  -59.893602326893,                       !- X Origin {m}
  -5.81491284727116,                      !- Y Origin {m}
  0,                                      !- Z Origin {m}
  {0b7dce74-c70b-4bb4-9b63-f4e44fdb1a7a}, !- Building Story Name
  {640d6390-d7a5-42e7-a5ba-b29f666437a7}; !- Thermal Zone Name

OS:Surface,
  {f09f2ce3-1926-4786-9fc3-48d53bd3b377}, !- Handle
  Surface 1,                              !- Name
  Floor,                                  !- Surface Type
  ,                                       !- Construction Name
  {35daa83b-cfe8-4864-8b6e-7471a33f52b5}, !- Space Name
  Ground,                                 !- Outside Boundary Condition
  ,                                       !- Outside Boundary Condition Object
  NoSun,                                  !- Sun Exposure
  NoWind,                                 !- Wind Exposure
  ,                                       !- View Factor to Ground
  ,                                       !- Number of Vertices
  -2.1316282072803e-014, 2.66453525910038e-015, 0, !- X,Y,Z Vertex 1 {m}
  -2.1316282072803e-014, 4.572, 0,        !- X,Y,Z Vertex 2 {m}
  4.57199999999998, 4.572, 0,             !- X,Y,Z Vertex 3 {m}
  4.57199999999998, 2.66453525910038e-015, 0; !- X,Y,Z Vertex 4 {m}

OS:Surface,
  {01f4ada0-a663-42ac-9dd7-67cbcf932b4e}, !- Handle
  Surface 2,                              !- Name
  Wall,                                   !- Surface Type
  ,                                       !- Construction Name
  {35daa83b-cfe8-4864-8b6e-7471a33f52b5}, !- Space Name
  Outdoors,                               !- Outside Boundary Condition
  ,                                       !- Outside Boundary Condition Object
  SunExposed,                             !- Sun Exposure
  WindExposed,                            !- Wind Exposure
  ,                                       !- View Factor to Ground
  ,                                       !- Number of Vertices
  -2.1316282072803e-014, 4.572, 3.9624,   !- X,Y,Z Vertex 1 {m}
  -2.1316282072803e-014, 4.572, 0,        !- X,Y,Z Vertex 2 {m}
  -2.1316282072803e-014, 2.66453525910038e-015, 0, !- X,Y,Z Vertex 3 {m}
  -2.1316282072803e-014, 2.66453525910038e-015, 3.9624; !- X,Y,Z Vertex 4 {m}

OS:Surface,
  {9f8ca83e-f4f4-4ebb-b5ec-1b1057c08a36}, !- Handle
  Surface 3,                              !- Name
  Wall,                                   !- Surface Type
  ,                                       !- Construction Name
  {35daa83b-cfe8-4864-8b6e-7471a33f52b5}, !- Space Name
  Surface,                                !- Outside Boundary Condition
  {113c8366-3e84-44d3-b8da-50bb06373042}, !- Outside Boundary Condition Object
  NoSun,                                  !- Sun Exposure
  NoWind,                                 !- Wind Exposure
  ,                                       !- View Factor to Ground
  ,                                       !- Number of Vertices
  4.57199999999998, 4.572, 3.9624,        !- X,Y,Z Vertex 1 {m}
  4.57199999999998, 4.572, 0,             !- X,Y,Z Vertex 2 {m}
  -2.1316282072803e-014, 4.572, 0,        !- X,Y,Z Vertex 3 {m}
  -2.1316282072803e-014, 4.572, 3.9624;   !- X,Y,Z Vertex 4 {m}

OS:Surface,
  {757f83fc-fa50-450a-bc7f-00792b854339}, !- Handle
  Surface 4,                              !- Name
  Wall,                                   !- Surface Type
  ,                                       !- Construction Name
  {35daa83b-cfe8-4864-8b6e-7471a33f52b5}, !- Space Name
  Surface,                                !- Outside Boundary Condition
  {074b68c0-4608-4ffd-ae19-c9036962d6d0}, !- Outside Boundary Condition Object
  NoSun,                                  !- Sun Exposure
  NoWind,                                 !- Wind Exposure
  ,                                       !- View Factor to Ground
  ,                                       !- Number of Vertices
  4.57199999999998, 2.66453525910038e-015, 3.9624, !- X,Y,Z Vertex 1 {m}
  4.57199999999998, 2.66453525910038e-015, 0, !- X,Y,Z Vertex 2 {m}
  4.57199999999998, 4.572, 0,             !- X,Y,Z Vertex 3 {m}
  4.57199999999998, 4.572, 3.9624;        !- X,Y,Z Vertex 4 {m}

OS:Surface,
  {71c75ca6-c630-4ec5-b38c-fb610d4ca53a}, !- Handle
  Surface 5,                              !- Name
  Wall,                                   !- Surface Type
  ,                                       !- Construction Name
  {35daa83b-cfe8-4864-8b6e-7471a33f52b5}, !- Space Name
  Outdoors,                               !- Outside Boundary Condition
  ,                                       !- Outside Boundary Condition Object
  SunExposed,                             !- Sun Exposure
  WindExposed,                            !- Wind Exposure
  ,                                       !- View Factor to Ground
  ,                                       !- Number of Vertices
  -2.1316282072803e-014, 2.66453525910038e-015, 3.9624, !- X,Y,Z Vertex 1 {m}
  -2.1316282072803e-014, 2.66453525910038e-015, 0, !- X,Y,Z Vertex 2 {m}
  4.57199999999998, 2.66453525910038e-015, 0, !- X,Y,Z Vertex 3 {m}
  4.57199999999998, 2.66453525910038e-015, 3.9624; !- X,Y,Z Vertex 4 {m}

OS:Surface,
  {a1298b13-80ef-4f01-87a8-fa84e4d3fcce}, !- Handle
  Surface 6,                              !- Name
  RoofCeiling,                            !- Surface Type
  ,                                       !- Construction Name
  {35daa83b-cfe8-4864-8b6e-7471a33f52b5}, !- Space Name
  Adiabatic,                              !- Outside Boundary Condition
  ,                                       !- Outside Boundary Condition Object
  NoSun,                                  !- Sun Exposure
  NoWind,                                 !- Wind Exposure
  ,                                       !- View Factor to Ground
  ,                                       !- Number of Vertices
  4.57199999999998, 2.66453525910038e-015, 3.9624, !- X,Y,Z Vertex 1 {m}
  4.57199999999998, 4.572, 3.9624,        !- X,Y,Z Vertex 2 {m}
  -2.1316282072803e-014, 4.572, 3.9624,   !- X,Y,Z Vertex 3 {m}
  -2.1316282072803e-014, 2.66453525910038e-015, 3.9624; !- X,Y,Z Vertex 4 {m}

OS:ThermalZone,
  {640d6390-d7a5-42e7-a5ba-b29f666437a7}, !- Handle
  Zone Nrs PatientRoom A end_a - Story Ground, !- Name
  1,                                      !- Multiplier
  ,                                       !- Ceiling Height {m}
  ,                                       !- Volume {m3}
  ,                                       !- Floor Area {m2}
  ,                                       !- Zone Inside Convection Algorithm
  ,                                       !- Zone Outside Convection Algorithm
  ,                                       !- Zone Conditioning Equipment List Name
  {db8f65e9-7a14-4347-a9b1-5ab9e9ee2ba3}, !- Zone Air Inlet Port List
  {4cecc66e-6e67-44ee-a132-0603fe4d9169}, !- Zone Air Exhaust Port List
  {ea94e8fe-3da3-43c5-bb39-4dfa26b1cec6}, !- Zone Air Node Name
  {e1e677b1-2ccc-4182-adfd-362e258c284d}, !- Zone Return Air Port List
  ,                                       !- Primary Daylighting Control Name
  ,                                       !- Fraction of Zone Controlled by Primary Daylighting Control
  ,                                       !- Secondary Daylighting Control Name
  ,                                       !- Fraction of Zone Controlled by Secondary Daylighting Control
  ,                                       !- Illuminance Map Name
  ,                                       !- Group Rendering Name
  ,                                       !- Thermostat Name
  No;                                     !- Use Ideal Air Loads

OS:Node,
  {43dd3fce-f87a-44d3-9444-7d0b02a50868}, !- Handle
  Node 1,                                 !- Name
  {ea94e8fe-3da3-43c5-bb39-4dfa26b1cec6}, !- Inlet Port
  ;                                       !- Outlet Port

OS:Connection,
  {ea94e8fe-3da3-43c5-bb39-4dfa26b1cec6}, !- Handle
  {9da584ee-5194-4b64-b8de-9bcf24d10b61}, !- Name
  {640d6390-d7a5-42e7-a5ba-b29f666437a7}, !- Source Object
  11,                                     !- Outlet Port
  {43dd3fce-f87a-44d3-9444-7d0b02a50868}, !- Target Object
  2;                                      !- Inlet Port

OS:PortList,
  {db8f65e9-7a14-4347-a9b1-5ab9e9ee2ba3}, !- Handle
  {9e94a04f-2cae-40af-a340-dc06cf13f9ff}, !- Name
  {640d6390-d7a5-42e7-a5ba-b29f666437a7}; !- HVAC Component

OS:PortList,
  {4cecc66e-6e67-44ee-a132-0603fe4d9169}, !- Handle
  {9aca4b2b-ca3c-4333-95e0-7f550228470b}, !- Name
  {640d6390-d7a5-42e7-a5ba-b29f666437a7}; !- HVAC Component

OS:PortList,
  {e1e677b1-2ccc-4182-adfd-362e258c284d}, !- Handle
  {aa4de553-88af-4a72-ba2f-bdfef3e72681}, !- Name
  {640d6390-d7a5-42e7-a5ba-b29f666437a7}; !- HVAC Component

OS:Sizing:Zone,
  {310000f3-d563-49c3-8e72-375d45ffe4dc}, !- Handle
  {640d6390-d7a5-42e7-a5ba-b29f666437a7}, !- Zone or ZoneList Name
  SupplyAirTemperature,                   !- Zone Cooling Design Supply Air Temperature Input Method
  14,                                     !- Zone Cooling Design Supply Air Temperature {C}
  11.11,                                  !- Zone Cooling Design Supply Air Temperature Difference {deltaC}
  SupplyAirTemperature,                   !- Zone Heating Design Supply Air Temperature Input Method
  40,                                     !- Zone Heating Design Supply Air Temperature {C}
  11.11,                                  !- Zone Heating Design Supply Air Temperature Difference {deltaC}
  0.0085,                                 !- Zone Cooling Design Supply Air Humidity Ratio {kg-H2O/kg-air}
  0.008,                                  !- Zone Heating Design Supply Air Humidity Ratio {kg-H2O/kg-air}
  ,                                       !- Zone Heating Sizing Factor
  ,                                       !- Zone Cooling Sizing Factor
  DesignDay,                              !- Cooling Design Air Flow Method
  ,                                       !- Cooling Design Air Flow Rate {m3/s}
  ,                                       !- Cooling Minimum Air Flow per Zone Floor Area {m3/s-m2}
  ,                                       !- Cooling Minimum Air Flow {m3/s}
  ,                                       !- Cooling Minimum Air Flow Fraction
  DesignDay,                              !- Heating Design Air Flow Method
  ,                                       !- Heating Design Air Flow Rate {m3/s}
  ,                                       !- Heating Maximum Air Flow per Zone Floor Area {m3/s-m2}
  ,                                       !- Heating Maximum Air Flow {m3/s}
  ,                                       !- Heating Maximum Air Flow Fraction
  ,                                       !- Design Zone Air Distribution Effectiveness in Cooling Mode
  ,                                       !- Design Zone Air Distribution Effectiveness in Heating Mode
  No,                                     !- Account for Dedicated Outdoor Air System
  NeutralSupplyAir,                       !- Dedicated Outdoor Air System Control Strategy
  autosize,                               !- Dedicated Outdoor Air Low Setpoint Temperature for Design {C}
  autosize;                               !- Dedicated Outdoor Air High Setpoint Temperature for Design {C}

OS:ZoneHVAC:EquipmentList,
  {32640ae7-d3f7-4444-a990-08f0455e653c}, !- Handle
  Zone HVAC Equipment List 1,             !- Name
  {640d6390-d7a5-42e7-a5ba-b29f666437a7}; !- Thermal Zone

OS:Space,
  {fd71b203-4f1d-4895-b5d7-b6a446aff1a8}, !- Handle
  Nrs PatientRoom B end_a - Story Ground, !- Name
  {b3b15d15-4941-4dd1-a380-4f697b49fc7d}, !- Space Type Name
  ,                                       !- Default Construction Set Name
  ,                                       !- Default Schedule Set Name
  -0,                                     !- Direction of Relative North {deg}
  -59.893602326893,                       !- X Origin {m}
  -1.24291284727116,                      !- Y Origin {m}
  0,                                      !- Z Origin {m}
  {0b7dce74-c70b-4bb4-9b63-f4e44fdb1a7a}, !- Building Story Name
  {7d1ad9f9-7beb-43e2-9a97-583d326b432c}; !- Thermal Zone Name

OS:Surface,
  {fafd57ce-918a-476d-81a6-fe5fed49043a}, !- Handle
  Surface 7,                              !- Name
  Floor,                                  !- Surface Type
  ,                                       !- Construction Name
  {fd71b203-4f1d-4895-b5d7-b6a446aff1a8}, !- Space Name
  Ground,                                 !- Outside Boundary Condition
  ,                                       !- Outside Boundary Condition Object
  NoSun,                                  !- Sun Exposure
  NoWind,                                 !- Wind Exposure
  ,                                       !- View Factor to Ground
  ,                                       !- Number of Vertices
  -2.1316282072803e-014, 3.10862446895044e-015, 0, !- X,Y,Z Vertex 1 {m}
  -2.1316282072803e-014, 2.48582569454232, 0, !- X,Y,Z Vertex 2 {m}
  4.57199999999998, 2.48582569454232, 0,  !- X,Y,Z Vertex 3 {m}
  4.57199999999998, 3.10862446895044e-015, 0; !- X,Y,Z Vertex 4 {m}

OS:Surface,
  {e68da71e-abd9-4c21-ab92-645ba4ed9361}, !- Handle
  Surface 8,                              !- Name
  Wall,                                   !- Surface Type
  ,                                       !- Construction Name
  {fd71b203-4f1d-4895-b5d7-b6a446aff1a8}, !- Space Name
  Outdoors,                               !- Outside Boundary Condition
  ,                                       !- Outside Boundary Condition Object
  SunExposed,                             !- Sun Exposure
  WindExposed,                            !- Wind Exposure
  ,                                       !- View Factor to Ground
  ,                                       !- Number of Vertices
  -2.1316282072803e-014, 2.48582569454232, 3.9624, !- X,Y,Z Vertex 1 {m}
  -2.1316282072803e-014, 2.48582569454232, 0, !- X,Y,Z Vertex 2 {m}
  -2.1316282072803e-014, 3.10862446895044e-015, 0, !- X,Y,Z Vertex 3 {m}
  -2.1316282072803e-014, 3.10862446895044e-015, 3.9624; !- X,Y,Z Vertex 4 {m}

OS:Surface,
  {ef5a0f9d-2fd2-40f6-8162-0fe532922cec}, !- Handle
  Surface 9,                              !- Name
  Wall,                                   !- Surface Type
  ,                                       !- Construction Name
  {fd71b203-4f1d-4895-b5d7-b6a446aff1a8}, !- Space Name
  Surface,                                !- Outside Boundary Condition
  {ff417171-6330-4486-8478-03978c8ef97e}, !- Outside Boundary Condition Object
  NoSun,                                  !- Sun Exposure
  NoWind,                                 !- Wind Exposure
  ,                                       !- View Factor to Ground
  ,                                       !- Number of Vertices
  4.57199999999998, 2.48582569454232, 3.9624, !- X,Y,Z Vertex 1 {m}
  4.57199999999998, 2.48582569454232, 0,  !- X,Y,Z Vertex 2 {m}
  -2.1316282072803e-014, 2.48582569454232, 0, !- X,Y,Z Vertex 3 {m}
  -2.1316282072803e-014, 2.48582569454232, 3.9624; !- X,Y,Z Vertex 4 {m}

OS:Surface,
  {d4bb0109-3956-401f-960a-a82259d86040}, !- Handle
  Surface 10,                             !- Name
  Wall,                                   !- Surface Type
  ,                                       !- Construction Name
  {fd71b203-4f1d-4895-b5d7-b6a446aff1a8}, !- Space Name
  Surface,                                !- Outside Boundary Condition
  {669a80f1-06c6-42b8-a442-0c7986b177d6}, !- Outside Boundary Condition Object
  NoSun,                                  !- Sun Exposure
  NoWind,                                 !- Wind Exposure
  ,                                       !- View Factor to Ground
  ,                                       !- Number of Vertices
  4.57199999999998, 3.10862446895044e-015, 3.9624, !- X,Y,Z Vertex 1 {m}
  4.57199999999998, 3.10862446895044e-015, 0, !- X,Y,Z Vertex 2 {m}
  4.57199999999998, 2.48582569454232, 0,  !- X,Y,Z Vertex 3 {m}
  4.57199999999998, 2.48582569454232, 3.9624; !- X,Y,Z Vertex 4 {m}

OS:Surface,
  {113c8366-3e84-44d3-b8da-50bb06373042}, !- Handle
  Surface 11,                             !- Name
  Wall,                                   !- Surface Type
  ,                                       !- Construction Name
  {fd71b203-4f1d-4895-b5d7-b6a446aff1a8}, !- Space Name
  Surface,                                !- Outside Boundary Condition
  {9f8ca83e-f4f4-4ebb-b5ec-1b1057c08a36}, !- Outside Boundary Condition Object
  NoSun,                                  !- Sun Exposure
  NoWind,                                 !- Wind Exposure
  ,                                       !- View Factor to Ground
  ,                                       !- Number of Vertices
  -2.1316282072803e-014, 3.10862446895044e-015, 3.9624, !- X,Y,Z Vertex 1 {m}
  -2.1316282072803e-014, 3.10862446895044e-015, 0, !- X,Y,Z Vertex 2 {m}
  4.57199999999998, 3.10862446895044e-015, 0, !- X,Y,Z Vertex 3 {m}
  4.57199999999998, 3.10862446895044e-015, 3.9624; !- X,Y,Z Vertex 4 {m}

OS:Surface,
  {4031efa3-2e9f-44ca-bf58-09eb552aaf87}, !- Handle
  Surface 12,                             !- Name
  RoofCeiling,                            !- Surface Type
  ,                                       !- Construction Name
  {fd71b203-4f1d-4895-b5d7-b6a446aff1a8}, !- Space Name
  Adiabatic,                              !- Outside Boundary Condition
  ,                                       !- Outside Boundary Condition Object
  NoSun,                                  !- Sun Exposure
  NoWind,                                 !- Wind Exposure
  ,                                       !- View Factor to Ground
  ,                                       !- Number of Vertices
  4.57199999999998, 3.10862446895044e-015, 3.9624, !- X,Y,Z Vertex 1 {m}
  4.57199999999998, 2.48582569454232, 3.9624, !- X,Y,Z Vertex 2 {m}
  -2.1316282072803e-014, 2.48582569454232, 3.9624, !- X,Y,Z Vertex 3 {m}
  -2.1316282072803e-014, 3.10862446895044e-015, 3.9624; !- X,Y,Z Vertex 4 {m}

OS:ThermalZone,
  {7d1ad9f9-7beb-43e2-9a97-583d326b432c}, !- Handle
  Zone Nrs PatientRoom B end_a - Story Ground, !- Name
  1,                                      !- Multiplier
  ,                                       !- Ceiling Height {m}
  ,                                       !- Volume {m3}
  ,                                       !- Floor Area {m2}
  ,                                       !- Zone Inside Convection Algorithm
  ,                                       !- Zone Outside Convection Algorithm
  ,                                       !- Zone Conditioning Equipment List Name
  {ff784015-7f51-4daf-970f-79bfad3f69bd}, !- Zone Air Inlet Port List
  {8e52958e-c035-49c6-bf5f-531409638fad}, !- Zone Air Exhaust Port List
  {f69bca6d-8d13-42e6-abee-4d41b2e556ae}, !- Zone Air Node Name
  {5c18b01f-491b-44d5-a3d2-1f3cbfcfce8a}, !- Zone Return Air Port List
  ,                                       !- Primary Daylighting Control Name
  ,                                       !- Fraction of Zone Controlled by Primary Daylighting Control
  ,                                       !- Secondary Daylighting Control Name
  ,                                       !- Fraction of Zone Controlled by Secondary Daylighting Control
  ,                                       !- Illuminance Map Name
  ,                                       !- Group Rendering Name
  ,                                       !- Thermostat Name
  No;                                     !- Use Ideal Air Loads

OS:Node,
  {246d4b03-51ab-4682-9c07-fc120e47907b}, !- Handle
  Node 2,                                 !- Name
  {f69bca6d-8d13-42e6-abee-4d41b2e556ae}, !- Inlet Port
  ;                                       !- Outlet Port

OS:Connection,
  {f69bca6d-8d13-42e6-abee-4d41b2e556ae}, !- Handle
  {81f2e6a0-aba6-4938-84a7-5890cd35aba9}, !- Name
  {7d1ad9f9-7beb-43e2-9a97-583d326b432c}, !- Source Object
  11,                                     !- Outlet Port
  {246d4b03-51ab-4682-9c07-fc120e47907b}, !- Target Object
  2;                                      !- Inlet Port

OS:PortList,
  {ff784015-7f51-4daf-970f-79bfad3f69bd}, !- Handle
  {86c09219-b86f-4a91-b8f7-8aa82e1ff2a8}, !- Name
  {7d1ad9f9-7beb-43e2-9a97-583d326b432c}; !- HVAC Component

OS:PortList,
  {8e52958e-c035-49c6-bf5f-531409638fad}, !- Handle
  {13005e03-45e3-46d0-bb4e-d99e7858dd64}, !- Name
  {7d1ad9f9-7beb-43e2-9a97-583d326b432c}; !- HVAC Component

OS:PortList,
  {5c18b01f-491b-44d5-a3d2-1f3cbfcfce8a}, !- Handle
  {9f87eca0-6f3f-46b7-a889-cac4171460ca}, !- Name
  {7d1ad9f9-7beb-43e2-9a97-583d326b432c}; !- HVAC Component

OS:Sizing:Zone,
  {4fcf303f-c534-434e-8ae5-fa88ed3732a3}, !- Handle
  {7d1ad9f9-7beb-43e2-9a97-583d326b432c}, !- Zone or ZoneList Name
  SupplyAirTemperature,                   !- Zone Cooling Design Supply Air Temperature Input Method
  14,                                     !- Zone Cooling Design Supply Air Temperature {C}
  11.11,                                  !- Zone Cooling Design Supply Air Temperature Difference {deltaC}
  SupplyAirTemperature,                   !- Zone Heating Design Supply Air Temperature Input Method
  40,                                     !- Zone Heating Design Supply Air Temperature {C}
  11.11,                                  !- Zone Heating Design Supply Air Temperature Difference {deltaC}
  0.0085,                                 !- Zone Cooling Design Supply Air Humidity Ratio {kg-H2O/kg-air}
  0.008,                                  !- Zone Heating Design Supply Air Humidity Ratio {kg-H2O/kg-air}
  ,                                       !- Zone Heating Sizing Factor
  ,                                       !- Zone Cooling Sizing Factor
  DesignDay,                              !- Cooling Design Air Flow Method
  ,                                       !- Cooling Design Air Flow Rate {m3/s}
  ,                                       !- Cooling Minimum Air Flow per Zone Floor Area {m3/s-m2}
  ,                                       !- Cooling Minimum Air Flow {m3/s}
  ,                                       !- Cooling Minimum Air Flow Fraction
  DesignDay,                              !- Heating Design Air Flow Method
  ,                                       !- Heating Design Air Flow Rate {m3/s}
  ,                                       !- Heating Maximum Air Flow per Zone Floor Area {m3/s-m2}
  ,                                       !- Heating Maximum Air Flow {m3/s}
  ,                                       !- Heating Maximum Air Flow Fraction
  ,                                       !- Design Zone Air Distribution Effectiveness in Cooling Mode
  ,                                       !- Design Zone Air Distribution Effectiveness in Heating Mode
  No,                                     !- Account for Dedicated Outdoor Air System
  NeutralSupplyAir,                       !- Dedicated Outdoor Air System Control Strategy
  autosize,                               !- Dedicated Outdoor Air Low Setpoint Temperature for Design {C}
  autosize;                               !- Dedicated Outdoor Air High Setpoint Temperature for Design {C}

OS:ZoneHVAC:EquipmentList,
  {1bb09d10-3b5e-47bb-a141-ac17708ff1ea}, !- Handle
  Zone HVAC Equipment List 2,             !- Name
  {7d1ad9f9-7beb-43e2-9a97-583d326b432c}; !- Thermal Zone

OS:Space,
  {390ff1f4-e037-4629-a2b5-28030b2602a8}, !- Handle
  Nrs PatientRoom C end_a - Story Ground, !- Name
  {b3b15d15-4941-4dd1-a380-4f697b49fc7d}, !- Space Type Name
  ,                                       !- Default Construction Set Name
  ,                                       !- Default Schedule Set Name
  -0,                                     !- Direction of Relative North {deg}
  -59.893602326893,                       !- X Origin {m}
  1.24291284727116,                       !- Y Origin {m}
  0,                                      !- Z Origin {m}
  {0b7dce74-c70b-4bb4-9b63-f4e44fdb1a7a}, !- Building Story Name
  {fed7702a-b944-4641-88bc-c65a4ce606f6}; !- Thermal Zone Name

OS:Surface,
  {b4b89993-a943-4a68-8675-a3527fd0b9eb}, !- Handle
  Surface 13,                             !- Name
  Floor,                                  !- Surface Type
  ,                                       !- Construction Name
  {390ff1f4-e037-4629-a2b5-28030b2602a8}, !- Space Name
  Ground,                                 !- Outside Boundary Condition
  ,                                       !- Outside Boundary Condition Object
  NoSun,                                  !- Sun Exposure
  NoWind,                                 !- Wind Exposure
  ,                                       !- View Factor to Ground
  ,                                       !- Number of Vertices
  -2.1316282072803e-014, -3.10862446895044e-015, 0, !- X,Y,Z Vertex 1 {m}
  -2.1316282072803e-014, 4.572, 0,        !- X,Y,Z Vertex 2 {m}
  4.57199999999998, 4.572, 0,             !- X,Y,Z Vertex 3 {m}
  4.57199999999998, -3.10862446895044e-015, 0; !- X,Y,Z Vertex 4 {m}

OS:Surface,