
OS:Version,
  {1fe16a30-630e-4554-9307-6825ac831de8}, !- Handle
  2.7.0;                                  !- Version Identifier

OS:SpaceType,
  {d6c4e3dc-661d-49e3-9a41-e4e13c0593d9}, !- Handle
  OfL LobbyWaiting,                       !- Name
  ,                                       !- Default Construction Set Name
  ,                                       !- Default Schedule Set Name
  ,                                       !- Group Rendering Name
  ,                                       !- Design Specification Outdoor Air Object Name
  ,                                       !- Standards Template
  OfL,                                    !- Standards Building Type
  LobbyWaiting;                           !- Standards Space Type

OS:SpaceType,
  {d071ef4d-cbed-4acf-92b9-54e4432e29de}, !- Handle
  OfL OfficeSmall,                        !- Name
  ,                                       !- Default Construction Set Name
  ,                                       !- Default Schedule Set Name
  ,                                       !- Group Rendering Name
  ,                                       !- Design Specification Outdoor Air Object Name
  ,                                       !- Standards Template
  OfL,                                    !- Standards Building Type
  OfficeSmall;                            !- Standards Space Type

OS:SpaceType,
  {d6d31c8b-40e1-45ae-950f-a4ab34fd3532}, !- Handle
  OfL OfficeOpen,                         !- Name
  ,                                       !- Default Construction Set Name
  ,                                       !- Default Schedule Set Name
  ,                                       !- Group Rendering Name
  ,                                       !- Design Specification Outdoor Air Object Name
  ,                                       !- Standards Template
  OfL,                                    !- Standards Building Type
  OfficeOpen;                             !- Standards Space Type

OS:SpaceType,
  {ef7fb9cf-29fb-4718-9648-bd968f1e0c3d}, !- Handle
  OfL MechElecRoom,                       !- Name
  ,                                       !- Default Construction Set Name
  ,                                       !- Default Schedule Set Name
  ,                                       !- Group Rendering Name
  ,                                       !- Design Specification Outdoor Air Object Name
  ,                                       !- Standards Template
  OfL,                                    !- Standards Building Type
  MechElecRoom;                           !- Standards Space Type

OS:Building,
  {20958641-6c4d-4054-aa2d-222fe801e2fd}, !- Handle
  DEER Pre-1975|OfL,                      !- Name
  ,                                       !- Building Sector Type
  ,                                       !- North Axis {deg}
  ,                                       !- Nominal Floor to Floor Height {m}
  ,                                       !- Space Type Name
  ,                                       !- Default Construction Set Name
  ;                                       !- Default Schedule Set Name

OS:Site,
  {632316ce-a7a7-420a-90d9-2e67400a372a}, !- Handle
  Site 1,                                 !- Name
  ,                                       !- Latitude {deg}
  ,                                       !- Longitude {deg}
  ,                                       !- Time Zone {hr}
  ,                                       !- Elevation {m}
  ;                                       !- Terrain

OS:BuildingStory,
  {9092f562-85ec-472f-b0f9-b2608317232a}, !- Handle
  Story Ground,                           !- Name
  0,                                      !- Nominal Z Coordinate {m}
  3.6576,                                 !- Nominal Floor to Floor Height {m}
  ,                                       !- Default Construction Set Name
  ,                                       !- Default Schedule Set Name
  ;                                       !- Group Rendering Name

OS:Space,
  {c021b859-f5c7-4685-b6af-3fcb3374536d}, !- Handle
  OfL OfficeOpen A end_a - Story Ground,  !- Name
  {d6d31c8b-40e1-45ae-950f-a4ab34fd3532}, !- Space Type Name
  ,                                       !- Default Construction Set Name
  ,                                       !- Default Schedule Set Name
  -0,                                     !- Direction of Relative North {deg}
  -45.0753755924451,                      !- X Origin {m}
  -30.0502503949634,                      !- Y Origin {m}
  0,                                      !- Z Origin {m}
  {9092f562-85ec-472f-b0f9-b2608317232a}, !- Building Story Name
  {ae444538-5cb7-4241-965f-071431d37cdc}; !- Thermal Zone Name

OS:Surface,
  {e3bf77f5-0e3e-4104-85fb-290e2dc14a38}, !- Handle
  Surface 1,                              !- Name
  Floor,                                  !- Surface Type
  ,                                       !- Construction Name
  {c021b859-f5c7-4685-b6af-3fcb3374536d}, !- Space Name
  Ground,                                 !- Outside Boundary Condition
  ,                                       !- Outside Boundary Condition Object
  NoSun,                                  !- Sun Exposure
  NoWind,                                 !- Wind Exposure
  ,                                       !- View Factor to Ground
  ,                                       !- Number of Vertices
  4.9737991503207e-014, 3.5527136788005e-014, 0, !- X,Y,Z Vertex 1 {m}
  4.9737991503207e-014, 4.57200000000003, 0, !- X,Y,Z Vertex 2 {m}
  4.57200000000005, 4.57200000000003, 0,  !- X,Y,Z Vertex 3 {m}
  4.57200000000005, 3.5527136788005e-014, 0; !- X,Y,Z Vertex 4 {m}

OS:Surface,
  {b0b533be-153d-4077-8b11-ace060e78d25}, !- Handle
  Surface 2,                              !- Name
  Wall,                                   !- Surface Type
  ,                                       !- Construction Name
  {c021b859-f5c7-4685-b6af-3fcb3374536d}, !- Space Name
  Outdoors,                               !- Outside Boundary Condition
  ,                                       !- Outside Boundary Condition Object
  SunExposed,                             !- Sun Exposure
  WindExposed,                            !- Wind Exposure
  ,                                       !- View Factor to Ground
  ,                                       !- Number of Vertices
  4.9737991503207e-014, 4.57200000000003, 3.6576, !- X,Y,Z Vertex 1 {m}
  4.9737991503207e-014, 4.57200000000003, 0, !- X,Y,Z Vertex 2 {m}
  4.9737991503207e-014, 3.5527136788005e-014, 0, !- X,Y,Z Vertex 3 {m}
  4.9737991503207e-014, 3.5527136788005e-014, 3.6576; !- X,Y,Z Vertex 4 {m}

OS:Surface,
  {9dfc3166-c35c-4625-b77c-8293c9064473}, !- Handle
  Surface 3,                              !- Name
  Wall,                                   !- Surface Type
  ,                                       !- Construction Name
  {c021b859-f5c7-4685-b6af-3fcb3374536d}, !- Space Name
  Surface,                                !- Outside Boundary Condition
  {5807e504-96e8-4889-bfaf-6b7348bddf9a}, !- Outside Boundary Condition Object
  NoSun,                                  !- Sun Exposure
  NoWind,                                 !- Wind Exposure
  ,                                       !- View Factor to Ground
  ,                                       !- Number of Vertices
  4.57200000000005, 4.57200000000003, 3.6576, !- X,Y,Z Vertex 1 {m}
  4.57200000000005, 4.57200000000003, 0,  !- X,Y,Z Vertex 2 {m}
  4.9737991503207e-014, 4.57200000000003, 0, !- X,Y,Z Vertex 3 {m}
  4.9737991503207e-014, 4.57200000000003, 3.6576; !- X,Y,Z Vertex 4 {m}

OS:Surface,
  {c612dc64-ee4c-49df-84a7-5a32b29bb77e}, !- Handle
  Surface 4,                              !- Name
  Wall,                                   !- Surface Type
  ,                                       !- Construction Name
  {c021b859-f5c7-4685-b6af-3fcb3374536d}, !- Space Name
  Surface,                                !- Outside Boundary Condition
  {05693868-1073-4a7e-ab22-6f0d868a2514}, !- Outside Boundary Condition Object
  NoSun,                                  !- Sun Exposure
  NoWind,                                 !- Wind Exposure
  ,                                       !- View Factor to Ground
  ,                                       !- Number of Vertices
  4.57200000000005, 3.5527136788005e-014, 3.6576, !- X,Y,Z Vertex 1 {m}
  4.57200000000005, 3.5527136788005e-014, 0, !- X,Y,Z Vertex 2 {m}
  4.57200000000005, 4.57200000000003, 0,  !- X,Y,Z Vertex 3 {m}
  4.57200000000005, 4.57200000000003, 3.6576; !- X,Y,Z Vertex 4 {m}

OS:Surface,
  {e7a811fe-5a23-43c6-a54a-f3677eabb4a3}, !- Handle
  Surface 5,                              !- Name
  Wall,                                   !- Surface Type
  ,                                       !- Construction Name
  {c021b859-f5c7-4685-b6af-3fcb3374536d}, !- Space Name
  Outdoors,                               !- Outside Boundary Condition
  ,                                       !- Outside Boundary Condition Object
  SunExposed,                             !- Sun Exposure
  WindExposed,                            !- Wind Exposure
  ,                                       !- View Factor to Ground
  ,                                       !- Number of Vertices
  4.9737991503207e-014, 3.5527136788005e-014, 3.6576, !- X,Y,Z Vertex 1 {m}
  4.9737991503207e-014, 3.5527136788005e-014, 0, !- X,Y,Z Vertex 2 {m}
  4.57200000000005, 3.5527136788005e-014, 0, !- X,Y,Z Vertex 3 {m}
  4.57200000000005, 3.5527136788005e-014, 3.6576; !- X,Y,Z Vertex 4 {m}

OS:Surface,
  {8f9fad53-90e4-424c-b173-7d8de72a664c}, !- Handle
  Surface 6,                              !- Name
  RoofCeiling,                            !- Surface Type
  ,                                       !- Construction Name
  {c021b859-f5c7-4685-b6af-3fcb3374536d}, !- Space Name
  Surface,                                !- Outside Boundary Condition
  {94d06155-5a0e-4483-b618-d6368e785463}, !- Outside Boundary Condition Object
  NoSun,                                  !- Sun Exposure
  NoWind,                                 !- Wind Exposure
  ,                                       !- View Factor to Ground
  ,                                       !- Number of Vertices
  4.57200000000005, 3.5527136788005e-014, 3.6576, !- X,Y,Z Vertex 1 {m}
  4.57200000000005, 4.57200000000003, 3.6576, !- X,Y,Z Vertex 2 {m}
  4.9737991503207e-014, 4.57200000000003, 3.6576, !- X,Y,Z Vertex 3 {m}
  4.9737991503207e-014, 3.5527136788005e-014, 3.6576; !- X,Y,Z Vertex 4 {m}

OS:ThermalZone,
  {ae444538-5cb7-4241-965f-071431d37cdc}, !- Handle
  Zone OfL OfficeOpen A end_a - Story Ground, !- Name
  1,                                      !- Multiplier
  ,                                       !- Ceiling Height {m}
  ,                                       !- Volume {m3}
  ,                                       !- Floor Area {m2}
  ,                                       !- Zone Inside Convection Algorithm
  ,                                       !- Zone Outside Convection Algorithm
  ,                                       !- Zone Conditioning Equipment List Name
  {8893d14d-073d-4482-b61f-5335dc5201c0}, !- Zone Air Inlet Port List
  {35f0a670-50ff-4673-92df-17cd3ddce5d6}, !- Zone Air Exhaust Port List
  {c4dd6f4e-aebb-4b41-91a4-50095ec6a175}, !- Zone Air Node Name
  {023493be-52a6-445c-a33b-237ec84be37b}, !- Zone Return Air Port List
  ,                                       !- Primary Daylighting Control Name
  ,                                       !- Fraction of Zone Controlled by Primary Daylighting Control
  ,                                       !- Secondary Daylighting Control Name
  ,                                       !- Fraction of Zone Controlled by Secondary Daylighting Control
  ,                                       !- Illuminance Map Name
  ,                                       !- Group Rendering Name
  ,                                       !- Thermostat Name
  No;                                     !- Use Ideal Air Loads

OS:Node,
  {a0e2c547-6a72-469e-8159-ce2307ef2ef1}, !- Handle
  Node 1,                                 !- Name
  {c4dd6f4e-aebb-4b41-91a4-50095ec6a175}, !- Inlet Port
  ;                                       !- Outlet Port

OS:Connection,
  {c4dd6f4e-aebb-4b41-91a4-50095ec6a175}, !- Handle
  {066dd043-304a-46e1-bcda-2e251c85e691}, !- Name
  {ae444538-5cb7-4241-965f-071431d37cdc}, !- Source Object
  11,                                     !- Outlet Port
  {a0e2c547-6a72-469e-8159-ce2307ef2ef1}, !- Target Object
  2;                                      !- Inlet Port

OS:PortList,
  {8893d14d-073d-4482-b61f-5335dc5201c0}, !- Handle
  {9b4697c0-9871-4fe3-821e-05996ca76323}, !- Name
  {ae444538-5cb7-4241-965f-071431d37cdc}; !- HVAC Component

OS:PortList,
  {35f0a670-50ff-4673-92df-17cd3ddce5d6}, !- Handle
  {3b1a6412-0422-4ed2-8aa2-04e88244f165}, !- Name
  {ae444538-5cb7-4241-965f-071431d37cdc}; !- HVAC Component

OS:PortList,
  {023493be-52a6-445c-a33b-237ec84be37b}, !- Handle
  {34784f87-eb32-4473-97f6-c5f99f6f1d43}, !- Name
  {ae444538-5cb7-4241-965f-071431d37cdc}; !- HVAC Component

OS:Sizing:Zone,
  {df2aa0b1-6391-47d5-b75b-98f7e93e902f}, !- Handle
  {ae444538-5cb7-4241-965f-071431d37cdc}, !- Zone or ZoneList Name
  SupplyAirTemperature,                   !- Zone Cooling Design Supply Air Temperature Input Method
  14,                                     !- Zone Cooling Design Supply Air Temperature {C}
  11.11,                                  !- Zone Cooling Design Supply Air Temperature Difference {deltaC}
  SupplyAirTemperature,                   !- Zone Heating Design Supply Air Temperature Input Method
  40,                                     !- Zone Heating Design Supply Air Temperature {C}
  11.11,                                  !- Zone Heating Design Supply Air Temperature Difference {deltaC}
  0.0085,                                 !- Zone Cooling Design Supply Air Humidity Ratio {kg-H2O/kg-air}
  0.008,                                  !- Zone Heating Design Supply Air Humidity Ratio {kg-H2O/kg-air}
  ,                                       !- Zone Heating Sizing Factor
  ,                                       !- Zone Cooling Sizing Factor
  DesignDay,                              !- Cooling Design Air Flow Method
  ,                                       !- Cooling Design Air Flow Rate {m3/s}
  ,                                       !- Cooling Minimum Air Flow per Zone Floor Area {m3/s-m2}
  ,                                       !- Cooling Minimum Air Flow {m3/s}
  ,                                       !- Cooling Minimum Air Flow Fraction
  DesignDay,                              !- Heating Design Air Flow Method
  ,                                       !- Heating Design Air Flow Rate {m3/s}
  ,                                       !- Heating Maximum Air Flow per Zone Floor Area {m3/s-m2}
  ,                                       !- Heating Maximum Air Flow {m3/s}
  ,                                       !- Heating Maximum Air Flow Fraction
  ,                                       !- Design Zone Air Distribution Effectiveness in Cooling Mode
  ,                                       !- Design Zone Air Distribution Effectiveness in Heating Mode
  No,                                     !- Account for Dedicated Outdoor Air System
  NeutralSupplyAir,                       !- Dedicated Outdoor Air System Control Strategy
  autosize,                               !- Dedicated Outdoor Air Low Setpoint Temperature for Design {C}
  autosize;                               !- Dedicated Outdoor Air High Setpoint Temperature for Design {C}

OS:ZoneHVAC:EquipmentList,
  {55c111be-05d3-4e8b-933e-eaf994abe19c}, !- Handle
  Zone HVAC Equipment List 1,             !- Name
  {ae444538-5cb7-4241-965f-071431d37cdc}; !- Thermal Zone

OS:Space,
  {a63d9662-c160-4640-b559-11cdaa49fda7}, !- Handle
  OfL OfficeOpen B end_a - Story Ground,  !- Name
  {d6d31c8b-40e1-45ae-950f-a4ab34fd3532}, !- Space Type Name
  ,                                       !- Default Construction Set Name
  ,                                       !- Default Schedule Set Name
  -0,                                     !- Direction of Relative North {deg}
  -45.0753755924451,                      !- X Origin {m}
  -25.4782503949634,                      !- Y Origin {m}
  0,                                      !- Z Origin {m}
  {9092f562-85ec-472f-b0f9-b2608317232a}, !- Building Story Name
  {c804b486-aa23-4f40-8b36-75c1308aeb67}; !- Thermal Zone Name

OS:Surface,
  {43681766-62be-4001-b96e-c41823af5327}, !- Handle
  Surface 7,                              !- Name
  Floor,                                  !- Surface Type
  ,                                       !- Construction Name
  {a63d9662-c160-4640-b559-11cdaa49fda7}, !- Space Name
  Ground,                                 !- Outside Boundary Condition
  ,                                       !- Outside Boundary Condition Object
  NoSun,                                  !- Sun Exposure
  NoWind,                                 !- Wind Exposure
  ,                                       !- View Factor to Ground
  ,                                       !- Number of Vertices
  4.9737991503207e-014, 3.5527136788005e-014, 0, !- X,Y,Z Vertex 1 {m}
  4.9737991503207e-014, 50.9565007899268, 0, !- X,Y,Z Vertex 2 {m}
  4.57200000000005, 50.9565007899268, 0,  !- X,Y,Z Vertex 3 {m}
  4.57200000000005, 3.5527136788005e-014, 0; !- X,Y,Z Vertex 4 {m}

OS:Surface,
  {44b31fa1-b338-4fe3-8230-6f9021fd903e}, !- Handle
  Surface 8,                              !- Name
  Wall,                                   !- Surface Type
  ,                                       !- Construction Name
  {a63d9662-c160-4640-b559-11cdaa49fda7}, !- Space Name
  Outdoors,                               !- Outside Boundary Condition
  ,                                       !- Outside Boundary Condition Object
  SunExposed,                             !- Sun Exposure
  WindExposed,                            !- Wind Exposure
  ,                                       !- View Factor to Ground
  ,                                       !- Number of Vertices
  4.9737991503207e-014, 50.9565007899268, 3.6576, !- X,Y,Z Vertex 1 {m}
  4.9737991503207e-014, 50.9565007899268, 0, !- X,Y,Z Vertex 2 {m}
  4.9737991503207e-014, 3.5527136788005e-014, 0, !- X,Y,Z Vertex 3 {m}
  4.9737991503207e-014, 3.5527136788005e-014, 3.6576; !- X,Y,Z Vertex 4 {m}

OS:Surface,
  {288b1807-cba7-43c9-a135-c8a1f3181dbe}, !- Handle
  Surface 9,                              !- Name
  Wall,                                   !- Surface Type
  ,                                       !- Construction Name
  {a63d9662-c160-4640-b559-11cdaa49fda7}, !- Space Name
  Surface,                                !- Outside Boundary Condition
  {cee4e0a3-3800-4611-8bb0-e95081a13a83}, !- Outside Boundary Condition Object
  NoSun,                                  !- Sun Exposure
  NoWind,                                 !- Wind Exposure
  ,                                       !- View Factor to Ground
  ,                                       !- Number of Vertices
  4.57200000000005, 50.9565007899268, 3.6576, !- X,Y,Z Vertex 1 {m}
  4.57200000000005, 50.9565007899268, 0,  !- X,Y,Z Vertex 2 {m}
  4.9737991503207e-014, 50.9565007899268, 0, !- X,Y,Z Vertex 3 {m}
  4.9737991503207e-014, 50.9565007899268, 3.6576; !- X,Y,Z Vertex 4 {m}

OS:Surface,
  {66dfe9e3-e361-411e-9aa3-16bff36194df}, !- Handle
  Surface 10,                             !- Name
  Wall,                                   !- Surface Type
  ,                                       !- Construction Name
  {a63d9662-c160-4640-b559-11cdaa49fda7}, !- Space Name
  Surface,                                !- Outside Boundary Condition
  {cf299e8c-f7a8-4dd9-8c98-0842c6109f56}, !- Outside Boundary Condition Object
  NoSun,                                  !- Sun Exposure
  NoWind,                                 !- Wind Exposure
  ,                                       !- View Factor to Ground
  ,                                       !- Number of Vertices
  4.57200000000005, 3.5527136788005e-014, 3.6576, !- X,Y,Z Vertex 1 {m}
  4.57200000000005, 3.5527136788005e-014, 0, !- X,Y,Z Vertex 2 {m}
  4.57200000000005, 50.9565007899268, 0,  !- X,Y,Z Vertex 3 {m}
  4.57200000000005, 50.9565007899268, 3.6576; !- X,Y,Z Vertex 4 {m}

OS:Surface,
  {5807e504-96e8-4889-bfaf-6b7348bddf9a}, !- Handle
  Surface 11,                             !- Name
  Wall,                                   !- Surface Type
  ,                                       !- Construction Name
  {a63d9662-c160-4640-b559-11cdaa49fda7}, !- Space Name
  Surface,                                !- Outside Boundary Condition
  {9dfc3166-c35c-4625-b77c-8293c9064473}, !- Outside Boundary Condition Object
  NoSun,                                  !- Sun Exposure
  NoWind,                                 !- Wind Exposure
  ,                                       !- View Factor to Ground
  ,                                       !- Number of Vertices
  4.9737991503207e-014, 3.5527136788005e-014, 3.6576, !- X,Y,Z Vertex 1 {m}
  4.9737991503207e-014, 3.5527136788005e-014, 0, !- X,Y,Z Vertex 2 {m}
  4.57200000000005, 3.5527136788005e-014, 0, !- X,Y,Z Vertex 3 {m}
  4.57200000000005, 3.5527136788005e-014, 3.6576; !- X,Y,Z Vertex 4 {m}

OS:Surface,
  {c30114d3-05fb-4ca2-862c-178e66ae46ab}, !- Handle
  Surface 12,                             !- Name
  RoofCeiling,                            !- Surface Type
  ,                                       !- Construction Name
  {a63d9662-c160-4640-b559-11cdaa49fda7}, !- Space Name
  Surface,                                !- Outside Boundary Condition
  {d8a08692-a978-46a4-a3d2-8145c93274a9}, !- Outside Boundary Condition Object
  NoSun,                                  !- Sun Exposure
  NoWind,                                 !- Wind Exposure
  ,                                       !- View Factor to Ground
  ,                                       !- Number of Vertices
  4.57200000000005, 3.5527136788005e-014, 3.6576, !- X,Y,Z Vertex 1 {m}
  4.57200000000005, 50.9565007899268, 3.6576, !- X,Y,Z Vertex 2 {m}
  4.9737991503207e-014, 50.9565007899268, 3.6576, !- X,Y,Z Vertex 3 {m}
  4.9737991503207e-014, 3.5527136788005e-014, 3.6576; !- X,Y,Z Vertex 4 {m}

OS:ThermalZone,
  {c804b486-aa23-4f40-8b36-75c1308aeb67}, !- Handle
  Zone OfL OfficeOpen B end_a - Story Ground, !- Name
  1,                                      !- Multiplier
  ,                                       !- Ceiling Height {m}
  ,                                       !- Volume {m3}
  ,                                       !- Floor Area {m2}
  ,                                       !- Zone Inside Convection Algorithm
  ,                                       !- Zone Outside Convection Algorithm
  ,                                       !- Zone Conditioning Equipment List Name
  {8c789e54-7c85-47cb-9550-032df013e7e2}, !- Zone Air Inlet Port List
  {6fde9892-bfee-41f1-91d2-31d2cd3f6fd9}, !- Zone Air Exhaust Port List
  {98cedc09-095d-4b6d-8947-226514b9419b}, !- Zone Air Node Name
  {6c43b9f4-a749-40cb-9153-0f36f91e1d2d}, !- Zone Return Air Port List
  ,                                       !- Primary Daylighting Control Name
  ,                                       !- Fraction of Zone Controlled by Primary Daylighting Control
  ,                                       !- Secondary Daylighting Control Name
  ,                                       !- Fraction of Zone Controlled by Secondary Daylighting Control
  ,                                       !- Illuminance Map Name
  ,                                       !- Group Rendering Name
  ,                                       !- Thermostat Name
  No;                                     !- Use Ideal Air Loads

OS:Node,
  {a093e38b-806f-4631-b056-794bb56f696a}, !- Handle
  Node 2,                                 !- Name
  {98cedc09-095d-4b6d-8947-226514b9419b}, !- Inlet Port
  ;                                       !- Outlet Port

OS:Connection,
  {98cedc09-095d-4b6d-8947-226514b9419b}, !- Handle
  {2888e0bb-172d-43cb-a78c-52a637ee119a}, !- Name
  {c804b486-aa23-4f40-8b36-75c1308aeb67}, !- Source Object
  11,                                     !- Outlet Port
  {a093e38b-806f-4631-b056-794bb56f696a}, !- Target Object
  2;                                      !- Inlet Port

OS:PortList,
  {8c789e54-7c85-47cb-9550-032df013e7e2}, !- Handle
  {cfbc3e75-a85a-45f3-8753-da2145fa148d}, !- Name
  {c804b486-aa23-4f40-8b36-75c1308aeb67}; !- HVAC Component

OS:PortList,
  {6fde9892-bfee-41f1-91d2-31d2cd3f6fd9}, !- Handle
  {acd86759-d426-49c2-bad4-0622047c4cc9}, !- Name
  {c804b486-aa23-4f40-8b36-75c1308aeb67}; !- HVAC Component

OS:PortList,
  {6c43b9f4-a749-40cb-9153-0f36f91e1d2d}, !- Handle
  {8c852130-663d-486d-a472-90ea52a40a01}, !- Name
  {c804b486-aa23-4f40-8b36-75c1308aeb67}; !- HVAC Component

OS:Sizing:Zone,
  {58c116a9-4916-466b-91ce-4c150e463c4e}, !- Handle
  {c804b486-aa23-4f40-8b36-75c1308aeb67}, !- Zone or ZoneList Name
  SupplyAirTemperature,                   !- Zone Cooling Design Supply Air Temperature Input Method
  14,                                     !- Zone Cooling Design Supply Air Temperature {C}
  11.11,                                  !- Zone Cooling Design Supply Air Temperature Difference {deltaC}
  SupplyAirTemperature,                   !- Zone Heating Design Supply Air Temperature Input Method
  40,                                     !- Zone Heating Design Supply Air Temperature {C}
  11.11,                                  !- Zone Heating Design Supply Air Temperature Difference {deltaC}
  0.0085,                                 !- Zone Cooling Design Supply Air Humidity Ratio {kg-H2O/kg-air}
  0.008,                                  !- Zone Heating Design Supply Air Humidity Ratio {kg-H2O/kg-air}
  ,                                       !- Zone Heating Sizing Factor
  ,                                       !- Zone Cooling Sizing Factor
  DesignDay,                              !- Cooling Design Air Flow Method
  ,                                       !- Cooling Design Air Flow Rate {m3/s}
  ,                                       !- Cooling Minimum Air Flow per Zone Floor Area {m3/s-m2}
  ,                                       !- Cooling Minimum Air Flow {m3/s}
  ,                                       !- Cooling Minimum Air Flow Fraction
  DesignDay,                              !- Heating Design Air Flow Method
  ,                                       !- Heating Design Air Flow Rate {m3/s}
  ,                                       !- Heating Maximum Air Flow per Zone Floor Area {m3/s-m2}
  ,                                       !- Heating Maximum Air Flow {m3/s}
  ,                                       !- Heating Maximum Air Flow Fraction
  ,                                       !- Design Zone Air Distribution Effectiveness in Cooling Mode
  ,                                       !- Design Zone Air Distribution Effectiveness in Heating Mode
  No,                                     !- Account for Dedicated Outdoor Air System
  NeutralSupplyAir,                       !- Dedicated Outdoor Air System Control Strategy
  autosize,                               !- Dedicated Outdoor Air Low Setpoint Temperature for Design {C}
  autosize;                               !- Dedicated Outdoor Air High Setpoint Temperature for Design {C}

OS:ZoneHVAC:EquipmentList,
  {8ea20bda-f672-489d-8d84-72514104e52f}, !- Handle
  Zone HVAC Equipment List 2,             !- Name
  {c804b486-aa23-4f40-8b36-75c1308aeb67}; !- Thermal Zone

OS:Space,
  {d239c8e5-837f-4ad1-b5eb-d80a0c2a6f5e}, !- Handle
  OfL OfficeOpen C end_a - Story Ground,  !- Name
  {d6d31c8b-40e1-45ae-950f-a4ab34fd3532}, !- Space Type Name
  ,                                       !- Default Construction Set Name
  ,                                       !- Default Schedule Set Name
  -0,                                     !- Direction of Relative North {deg}
  -45.0753755924451,                      !- X Origin {m}
  25.4782503949634,                       !- Y Origin {m}
  0,                                      !- Z Origin {m}
  {9092f562-85ec-472f-b0f9-b2608317232a}, !- Building Story Name
  {1e52c654-d05e-4cdf-b3c9-648a988b6e09}; !- Thermal Zone Name

OS:Surface,
  {524747b0-f9cd-489c-9e57-a0002cf2d83d}, !- Handle
  Surface 13,                             !- Name
  Floor,                                  !- Surface Type
  ,                                       !- Construction Name
  {d239c8e5-837f-4ad1-b5eb-d80a0c2a6f5e}, !- Space Name
  Ground,                                 !- Outside Boundary Condition
  ,                                       !- Outside Boundary Condition Object
  NoSun,                                  !- Sun Exposure
  NoWind,                                 !- Wind Exposure
  ,                                       !- View Factor to Ground
  ,                                       !- Number of Vertices
  4.9737991503207e-014, -3.5527136788005e-014, 0, !- X,Y,Z Vertex 1 {m}
  4.9737991503207e-014, 4.57199999999996, 0, !- X,Y,Z Vertex 2 {m}
  4.57200000000005, 4.57199999999996, 0,  !- X,Y,Z Vertex 3 {m}
  4.57200000000005, -3.5527136788005e-014, 0; !- X,Y,Z Vertex 4 {m}

OS:Surface,
  {dfe1ad50-64aa-4f6a-a781-3a7c2bd55d2b}, !- Handle
  Surface 14,                             !- Name
  Wall,                                   !- Surface Type
  ,                                       !- Construction Name
  {d239c8e5-837f-4ad1-b5eb-d80a0c2a6f5e}, !- Space Name
  Outdoors,                               !- Outside Boundary Condition
  ,                                       !- Outside Boundary Condition Object
  SunExposed,                             !- Sun Exposure
  WindExposed,                            !- Wind Exposure
  ,                                       !- View Factor to Ground