
OS:Version,
  {27457e95-ea05-4aee-b488-53111ddc6f9e}, !- Handle
  2.7.0;                                  !- Version Identifier

OS:SpaceType,
  {3891b4bb-f6bc-410a-b2dc-ad3e3107843a}, !- Handle
  OfS Hall,                               !- Name
  ,                                       !- Default Construction Set Name
  ,                                       !- Default Schedule Set Name
  ,                                       !- Group Rendering Name
  ,                                       !- Design Specification Outdoor Air Object Name
  ,                                       !- Standards Template
  OfS,                                    !- Standards Building Type
  Hall;                                   !- Standards Space Type

OS:SpaceType,
  {a54ba7c6-e3c1-41da-84d1-ba15f3bc977f}, !- Handle
  OfS OfficeSmall,                        !- Name
  ,                                       !- Default Construction Set Name
  ,                                       !- Default Schedule Set Name
  ,                                       !- Group Rendering Name
  ,                                       !- Design Specification Outdoor Air Object Name
  ,                                       !- Standards Template
  OfS,                                    !- Standards Building Type
  OfficeSmall;                            !- Standards Space Type

OS:Building,
  {6d550374-73ee-4823-b615-6bd148b5ac53}, !- Handle
  DEER Pre-1975|OfS,                      !- Name
  ,                                       !- Building Sector Type
  ,                                       !- North Axis {deg}
  ,                                       !- Nominal Floor to Floor Height {m}
  ,                                       !- Space Type Name
  ,                                       !- Default Construction Set Name
  ;                                       !- Default Schedule Set Name

OS:Site,
  {9acee523-b2c4-4c5f-b6e1-acbe4c516255}, !- Handle
  Site 1,                                 !- Name
  ,                                       !- Latitude {deg}
  ,                                       !- Longitude {deg}
  ,                                       !- Time Zone {hr}
  ,                                       !- Elevation {m}
  ;                                       !- Terrain

OS:BuildingStory,
  {4866a78a-59a2-46c0-89cb-0c604fa1bc03}, !- Handle
  Story Ground,                           !- Name
  0,                                      !- Nominal Z Coordinate {m}
  3.6576,                                 !- Nominal Floor to Floor Height {m}
  ,                                       !- Default Construction Set Name
  ,                                       !- Default Schedule Set Name
  ;                                       !- Group Rendering Name

OS:Space,
  {03009d46-e672-4bb8-bcce-1ee64a2f974e}, !- Handle
  OfS OfficeSmall A end_a - Story Ground, !- Name
  {a54ba7c6-e3c1-41da-84d1-ba15f3bc977f}, !- Space Type Name
  ,                                       !- Default Construction Set Name
  ,                                       !- Default Schedule Set Name
  -0,                                     !- Direction of Relative North {deg}
  -13.1995469104057,                      !- X Origin {m}
  -8.79969794027045,                      !- Y Origin {m}
  0,                                      !- Z Origin {m}
  {4866a78a-59a2-46c0-89cb-0c604fa1bc03}, !- Building Story Name
  {3c1c6d7d-5294-486a-8d5e-fd5b66f604ce}; !- Thermal Zone Name

OS:Surface,
  {896f4d34-fe21-4fe4-92ff-345851c960e4}, !- Handle
  Surface 1,                              !- Name
  Floor,                                  !- Surface Type
  ,                                       !- Construction Name
  {03009d46-e672-4bb8-bcce-1ee64a2f974e}, !- Space Name
  Ground,                                 !- Outside Boundary Condition
  ,                                       !- Outside Boundary Condition Object
  NoSun,                                  !- Sun Exposure
  NoWind,                                 !- Wind Exposure
  ,                                       !- View Factor to Ground
  ,                                       !- Number of Vertices
  -2.66453525910038e-014, 0, 0,           !- X,Y,Z Vertex 1 {m}
  -2.66453525910038e-014, 4.572, 0,       !- X,Y,Z Vertex 2 {m}
  4.572, 4.572, 0,                        !- X,Y,Z Vertex 3 {m}
  4.572, 0, 0;                            !- X,Y,Z Vertex 4 {m}

OS:Surface,
  {4dddb1a7-f451-474f-8c82-8799e0a4b571}, !- Handle
  Surface 2,                              !- Name
  Wall,                                   !- Surface Type
  ,                                       !- Construction Name
  {03009d46-e672-4bb8-bcce-1ee64a2f974e}, !- Space Name
  Outdoors,                               !- Outside Boundary Condition
  ,                                       !- Outside Boundary Condition Object
  SunExposed,                             !- Sun Exposure
  WindExposed,                            !- Wind Exposure
  ,                                       !- View Factor to Ground
  ,                                       !- Number of Vertices
  -2.66453525910038e-014, 4.572, 3.6576,  !- X,Y,Z Vertex 1 {m}
  -2.66453525910038e-014, 4.572, 0,       !- X,Y,Z Vertex 2 {m}
  -2.66453525910038e-014, 0, 0,           !- X,Y,Z Vertex 3 {m}
  -2.66453525910038e-014, 0, 3.6576;      !- X,Y,Z Vertex 4 {m}

OS:Surface,
  {a607d483-6cc2-447d-a36d-b31a9015e0eb}, !- Handle
  Surface 3,                              !- Name
  Wall,                                   !- Surface Type
  ,                                       !- Construction Name
  {03009d46-e672-4bb8-bcce-1ee64a2f974e}, !- Space Name
  Surface,                                !- Outside Boundary Condition
  {571ca1a2-432a-400d-b69f-91fb9e12f0ad}, !- Outside Boundary Condition Object
  NoSun,                                  !- Sun Exposure
  NoWind,                                 !- Wind Exposure
  ,                                       !- View Factor to Ground
  ,                                       !- Number of Vertices
  4.572, 4.572, 3.6576,                   !- X,Y,Z Vertex 1 {m}
  4.572, 4.572, 0,                        !- X,Y,Z Vertex 2 {m}
  -2.66453525910038e-014, 4.572, 0,       !- X,Y,Z Vertex 3 {m}
  -2.66453525910038e-014, 4.572, 3.6576;  !- X,Y,Z Vertex 4 {m}

OS:Surface,
  {5a76bea5-b4f0-4a25-9fa6-3caee2eb9b13}, !- Handle
  Surface 4,                              !- Name
  Wall,                                   !- Surface Type
  ,                                       !- Construction Name
  {03009d46-e672-4bb8-bcce-1ee64a2f974e}, !- Space Name
  Surface,                                !- Outside Boundary Condition
  {9e86a3a6-21dc-4a53-8460-43d91dca2e2d}, !- Outside Boundary Condition Object
  NoSun,                                  !- Sun Exposure
  NoWind,                                 !- Wind Exposure
  ,                                       !- View Factor to Ground
  ,                                       !- Number of Vertices
  4.572, 0, 3.6576,                       !- X,Y,Z Vertex 1 {m}
  4.572, 0, 0,                            !- X,Y,Z Vertex 2 {m}
  4.572, 4.572, 0,                        !- X,Y,Z Vertex 3 {m}
  4.572, 4.572, 3.6576;                   !- X,Y,Z Vertex 4 {m}

OS:Surface,
  {7c4e0b7a-7383-417d-be65-235893d6c08f}, !- Handle
  Surface 5,                              !- Name
  Wall,                                   !- Surface Type
  ,                                       !- Construction Name
  {03009d46-e672-4bb8-bcce-1ee64a2f974e}, !- Space Name
  Outdoors,                               !- Outside Boundary Condition
  ,                                       !- Outside Boundary Condition Object
  SunExposed,                             !- Sun Exposure
  WindExposed,                            !- Wind Exposure
  ,                                       !- View Factor to Ground
  ,                                       !- Number of Vertices
  -2.66453525910038e-014, 0, 3.6576,      !- X,Y,Z Vertex 1 {m}
  -2.66453525910038e-014, 0, 0,           !- X,Y,Z Vertex 2 {m}
  4.572, 0, 0,                            !- X,Y,Z Vertex 3 {m}
  4.572, 0, 3.6576;                       !- X,Y,Z Vertex 4 {m}

OS:Surface,
  {375fd688-f9b2-4f5a-8171-4f044e9517ca}, !- Handle
  Surface 6,                              !- Name
  RoofCeiling,                            !- Surface Type
  ,                                       !- Construction Name
  {03009d46-e672-4bb8-bcce-1ee64a2f974e}, !- Space Name
  Surface,                                !- Outside Boundary Condition
  {35cd4cf8-b929-4af8-9955-26eaddbce3b4}, !- Outside Boundary Condition Object
  NoSun,                                  !- Sun Exposure
  NoWind,                                 !- Wind Exposure
  ,                                       !- View Factor to Ground
  ,                                       !- Number of Vertices
  4.572, 0, 3.6576,                       !- X,Y,Z Vertex 1 {m}
  4.572, 4.572, 3.6576,                   !- X,Y,Z Vertex 2 {m}
  -2.66453525910038e-014, 4.572, 3.6576,  !- X,Y,Z Vertex 3 {m}
  -2.66453525910038e-014, 0, 3.6576;      !- X,Y,Z Vertex 4 {m}

OS:ThermalZone,
  {3c1c6d7d-5294-486a-8d5e-fd5b66f604ce}, !- Handle
  Zone OfS OfficeSmall A end_a - Story Ground, !- Name
  1,                                      !- Multiplier
  ,                                       !- Ceiling Height {m}
  ,                                       !- Volume {m3}
  ,                                       !- Floor Area {m2}
  ,                                       !- Zone Inside Convection Algorithm
  ,                                       !- Zone Outside Convection Algorithm
  ,                                       !- Zone Conditioning Equipment List Name
  {d46405d3-a853-43b9-99c6-b85953777bdb}, !- Zone Air Inlet Port List
  {1aac0904-0214-45e6-ab20-400e90351cbd}, !- Zone Air Exhaust Port List
  {95741fca-a03e-4c0d-b080-4bcf8d316596}, !- Zone Air Node Name
  {89dd44f1-8617-4370-8308-57f85c2ffee4}, !- Zone Return Air Port List
  ,                                       !- Primary Daylighting Control Name
  ,                                       !- Fraction of Zone Controlled by Primary Daylighting Control
  ,                                       !- Secondary Daylighting Control Name
  ,                                       !- Fraction of Zone Controlled by Secondary Daylighting Control
  ,                                       !- Illuminance Map Name
  ,                                       !- Group Rendering Name
  ,                                       !- Thermostat Name
  No;                                     !- Use Ideal Air Loads

OS:Node,
  {c1975f38-338f-46c6-9145-d528b12d040c}, !- Handle
  Node 1,                                 !- Name
  {95741fca-a03e-4c0d-b080-4bcf8d316596}, !- Inlet Port
  ;                                       !- Outlet Port

OS:Connection,
  {95741fca-a03e-4c0d-b080-4bcf8d316596}, !- Handle
  {d7432fe8-494f-4c0d-be07-96421028dbe0}, !- Name
  {3c1c6d7d-5294-486a-8d5e-fd5b66f604ce}, !- Source Object
  11,                                     !- Outlet Port
  {c1975f38-338f-46c6-9145-d528b12d040c}, !- Target Object
  2;                                      !- Inlet Port

OS:PortList,
  {d46405d3-a853-43b9-99c6-b85953777bdb}, !- Handle
  {85144276-0745-4fc3-883a-37cb4b3545b8}, !- Name
  {3c1c6d7d-5294-486a-8d5e-fd5b66f604ce}; !- HVAC Component

OS:PortList,
  {1aac0904-0214-45e6-ab20-400e90351cbd}, !- Handle
  {f3859222-e1b8-49db-be3d-f2b1dd517977}, !- Name
  {3c1c6d7d-5294-486a-8d5e-fd5b66f604ce}; !- HVAC Component

OS:PortList,
  {89dd44f1-8617-4370-8308-57f85c2ffee4}, !- Handle
  {9eb6e931-c9b4-433b-801b-e7b56e235a98}, !- Name
  {3c1c6d7d-5294-486a-8d5e-fd5b66f604ce}; !- HVAC Component

OS:Sizing:Zone,
  {aaa59232-030a-4601-89e8-70d15d52b14d}, !- Handle
  {3c1c6d7d-5294-486a-8d5e-fd5b66f604ce}, !- Zone or ZoneList Name
  SupplyAirTemperature,                   !- Zone Cooling Design Supply Air Temperature Input Method
  14,                                     !- Zone Cooling Design Supply Air Temperature {C}
  11.11,                                  !- Zone Cooling Design Supply Air Temperature Difference {deltaC}
  SupplyAirTemperature,                   !- Zone Heating Design Supply Air Temperature Input Method
  40,                                     !- Zone Heating Design Supply Air Temperature {C}
  11.11,                                  !- Zone Heating Design Supply Air Temperature Difference {deltaC}
  0.0085,                                 !- Zone Cooling Design Supply Air Humidity Ratio {kg-H2O/kg-air}
  0.008,                                  !- Zone Heating Design Supply Air Humidity Ratio {kg-H2O/kg-air}
  ,                                       !- Zone Heating Sizing Factor
  ,                                       !- Zone Cooling Sizing Factor
  DesignDay,                              !- Cooling Design Air Flow Method
  ,                                       !- Cooling Design Air Flow Rate {m3/s}
  ,                                       !- Cooling Minimum Air Flow per Zone Floor Area {m3/s-m2}
  ,                                       !- Cooling Minimum Air Flow {m3/s}
  ,                                       !- Cooling Minimum Air Flow Fraction
  DesignDay,                              !- Heating Design Air Flow Method
  ,                                       !- Heating Design Air Flow Rate {m3/s}
  ,                                       !- Heating Maximum Air Flow per Zone Floor Area {m3/s-m2}
  ,                                       !- Heating Maximum Air Flow {m3/s}
  ,                                       !- Heating Maximum Air Flow Fraction
  ,                                       !- Design Zone Air Distribution Effectiveness in Cooling Mode
  ,                                       !- Design Zone Air Distribution Effectiveness in Heating Mode
  No,                                     !- Account for Dedicated Outdoor Air System
  NeutralSupplyAir,                       !- Dedicated Outdoor Air System Control Strategy
  autosize,                               !- Dedicated Outdoor Air Low Setpoint Temperature for Design {C}
  autosize;                               !- Dedicated Outdoor Air High Setpoint Temperature for Design {C}

OS:ZoneHVAC:EquipmentList,
  {9b3e9804-961a-40f0-8968-d97c9104cfad}, !- Handle
  Zone HVAC Equipment List 1,             !- Name
  {3c1c6d7d-5294-486a-8d5e-fd5b66f604ce}; !- Thermal Zone

OS:Space,
  {2d911d64-c9c9-4fc0-a394-dcdefbf151f5}, !- Handle
  OfS OfficeSmall B end_a - Story Ground, !- Name
  {a54ba7c6-e3c1-41da-84d1-ba15f3bc977f}, !- Space Type Name
  ,                                       !- Default Construction Set Name
  ,                                       !- Default Schedule Set Name
  -0,                                     !- Direction of Relative North {deg}
  -13.1995469104057,                      !- X Origin {m}
  -4.22769794027045,                      !- Y Origin {m}
  0,                                      !- Z Origin {m}
  {4866a78a-59a2-46c0-89cb-0c604fa1bc03}, !- Building Story Name
  {166284bb-4a8c-48cb-9b8a-b1a48a37256a}; !- Thermal Zone Name

OS:Surface,
  {bc0e8f43-eb56-494a-aff1-c08e554a36c4}, !- Handle
  Surface 7,                              !- Name
  Floor,                                  !- Surface Type
  ,                                       !- Construction Name
  {2d911d64-c9c9-4fc0-a394-dcdefbf151f5}, !- Space Name
  Ground,                                 !- Outside Boundary Condition
  ,                                       !- Outside Boundary Condition Object
  NoSun,                                  !- Sun Exposure
  NoWind,                                 !- Wind Exposure
  ,                                       !- View Factor to Ground
  ,                                       !- Number of Vertices
  -2.66453525910038e-014, 0, 0,           !- X,Y,Z Vertex 1 {m}
  -2.66453525910038e-014, 8.4553958805409, 0, !- X,Y,Z Vertex 2 {m}
  4.572, 8.4553958805409, 0,              !- X,Y,Z Vertex 3 {m}
  4.572, 0, 0;                            !- X,Y,Z Vertex 4 {m}

OS:Surface,
  {8275dd1b-73b4-42e0-87e2-f87dd11a4e39}, !- Handle
  Surface 8,                              !- Name
  Wall,                                   !- Surface Type
  ,                                       !- Construction Name
  {2d911d64-c9c9-4fc0-a394-dcdefbf151f5}, !- Space Name
  Outdoors,                               !- Outside Boundary Condition
  ,                                       !- Outside Boundary Condition Object
  SunExposed,                             !- Sun Exposure
  WindExposed,                            !- Wind Exposure
  ,                                       !- View Factor to Ground
  ,                                       !- Number of Vertices
  -2.66453525910038e-014, 8.4553958805409, 3.6576, !- X,Y,Z Vertex 1 {m}
  -2.66453525910038e-014, 8.4553958805409, 0, !- X,Y,Z Vertex 2 {m}
  -2.66453525910038e-014, 0, 0,           !- X,Y,Z Vertex 3 {m}
  -2.66453525910038e-014, 0, 3.6576;      !- X,Y,Z Vertex 4 {m}

OS:Surface,
  {59778650-eb31-4b58-84b2-6e2a2a67dfd5}, !- Handle
  Surface 9,                              !- Name
  Wall,                                   !- Surface Type
  ,                                       !- Construction Name
  {2d911d64-c9c9-4fc0-a394-dcdefbf151f5}, !- Space Name
  Surface,                                !- Outside Boundary Condition
  {60c8af81-fd89-4c17-a042-092deb8009dd}, !- Outside Boundary Condition Object
  NoSun,                                  !- Sun Exposure
  NoWind,                                 !- Wind Exposure
  ,                                       !- View Factor to Ground
  ,                                       !- Number of Vertices
  4.572, 8.4553958805409, 3.6576,         !- X,Y,Z Vertex 1 {m}
  4.572, 8.4553958805409, 0,              !- X,Y,Z Vertex 2 {m}
  -2.66453525910038e-014, 8.4553958805409, 0, !- X,Y,Z Vertex 3 {m}
  -2.66453525910038e-014, 8.4553958805409, 3.6576; !- X,Y,Z Vertex 4 {m}

OS:Surface,
  {11d5f9b2-82e3-4e2d-b28a-bd0b554439cb}, !- Handle
  Surface 10,                             !- Name
  Wall,                                   !- Surface Type
  ,                                       !- Construction Name
  {2d911d64-c9c9-4fc0-a394-dcdefbf151f5}, !- Space Name
  Surface,                                !- Outside Boundary Condition
  {e11e650c-ca54-4c15-9eb1-c453ebac3535}, !- Outside Boundary Condition Object
  NoSun,                                  !- Sun Exposure
  NoWind,                                 !- Wind Exposure
  ,                                       !- View Factor to Ground
  ,                                       !- Number of Vertices
  4.572, 0, 3.6576,                       !- X,Y,Z Vertex 1 {m}
  4.572, 0, 0,                            !- X,Y,Z Vertex 2 {m}
  4.572, 8.4553958805409, 0,              !- X,Y,Z Vertex 3 {m}
  4.572, 8.4553958805409, 3.6576;         !- X,Y,Z Vertex 4 {m}

OS:Surface,
  {571ca1a2-432a-400d-b69f-91fb9e12f0ad}, !- Handle
  Surface 11,                             !- Name
  Wall,                                   !- Surface Type
  ,                                       !- Construction Name
  {2d911d64-c9c9-4fc0-a394-dcdefbf151f5}, !- Space Name
  Surface,                                !- Outside Boundary Condition
  {a607d483-6cc2-447d-a36d-b31a9015e0eb}, !- Outside Boundary Condition Object
  NoSun,                                  !- Sun Exposure
  NoWind,                                 !- Wind Exposure
  ,                                       !- View Factor to Ground
  ,                                       !- Number of Vertices
  -2.66453525910038e-014, 0, 3.6576,      !- X,Y,Z Vertex 1 {m}
  -2.66453525910038e-014, 0, 0,           !- X,Y,Z Vertex 2 {m}
  4.572, 0, 0,                            !- X,Y,Z Vertex 3 {m}
  4.572, 0, 3.6576;                       !- X,Y,Z Vertex 4 {m}

OS:Surface,
  {fd6bac93-4a9f-4110-9ea2-fa6a2fc01e0c}, !- Handle
  Surface 12,                             !- Name
  RoofCeiling,                            !- Surface Type
  ,                                       !- Construction Name
  {2d911d64-c9c9-4fc0-a394-dcdefbf151f5}, !- Space Name
  Surface,                                !- Outside Boundary Condition
  {1e37ea42-7e33-4046-988d-0677b113e383}, !- Outside Boundary Condition Object
  NoSun,                                  !- Sun Exposure
  NoWind,                                 !- Wind Exposure
  ,                                       !- View Factor to Ground
  ,                                       !- Number of Vertices
  4.572, 0, 3.6576,                       !- X,Y,Z Vertex 1 {m}
  4.572, 8.4553958805409, 3.6576,         !- X,Y,Z Vertex 2 {m}
  -2.66453525910038e-014, 8.4553958805409, 3.6576, !- X,Y,Z Vertex 3 {m}
  -2.66453525910038e-014, 0, 3.6576;      !- X,Y,Z Vertex 4 {m}

OS:ThermalZone,
  {166284bb-4a8c-48cb-9b8a-b1a48a37256a}, !- Handle
  Zone OfS OfficeSmall B end_a - Story Ground, !- Name
  1,                                      !- Multiplier
  ,                                       !- Ceiling Height {m}
  ,                                       !- Volume {m3}
  ,                                       !- Floor Area {m2}
  ,                                       !- Zone Inside Convection Algorithm
  ,                                       !- Zone Outside Convection Algorithm
  ,                                       !- Zone Conditioning Equipment List Name
  {2ec1c8a0-a5da-47dd-9fa3-cd8d9d5a2c3f}, !- Zone Air Inlet Port List
  {19985534-872b-40e3-8fd7-0694b165c655}, !- Zone Air Exhaust Port List
  {d7974a19-de6d-4a55-bf3e-92eef7bda820}, !- Zone Air Node Name
  {bdece0b9-4023-423c-acd8-88b44816faa8}, !- Zone Return Air Port List
  ,                                       !- Primary Daylighting Control Name
  ,                                       !- Fraction of Zone Controlled by Primary Daylighting Control
  ,                                       !- Secondary Daylighting Control Name
  ,                                       !- Fraction of Zone Controlled by Secondary Daylighting Control
  ,                                       !- Illuminance Map Name
  ,                                       !- Group Rendering Name
  ,                                       !- Thermostat Name
  No;                                     !- Use Ideal Air Loads

OS:Node,
  {096e46f7-74dc-496a-813d-8d41a967f4cc}, !- Handle
  Node 2,                                 !- Name
  {d7974a19-de6d-4a55-bf3e-92eef7bda820}, !- Inlet Port
  ;                                       !- Outlet Port

OS:Connection,
  {d7974a19-de6d-4a55-bf3e-92eef7bda820}, !- Handle
  {21602d13-c378-4cc0-ab0a-ace81780e665}, !- Name
  {166284bb-4a8c-48cb-9b8a-b1a48a37256a}, !- Source Object
  11,                                     !- Outlet Port
  {096e46f7-74dc-496a-813d-8d41a967f4cc}, !- Target Object
  2;                                      !- Inlet Port

OS:PortList,
  {2ec1c8a0-a5da-47dd-9fa3-cd8d9d5a2c3f}, !- Handle
  {58013768-77d1-44bd-9ecc-d7872c37de4e}, !- Name
  {166284bb-4a8c-48cb-9b8a-b1a48a37256a}; !- HVAC Component

OS:PortList,
  {19985534-872b-40e3-8fd7-0694b165c655}, !- Handle
  {8f9d3ba8-40e9-4386-aeea-e4d16e9c27fe}, !- Name
  {166284bb-4a8c-48cb-9b8a-b1a48a37256a}; !- HVAC Component

OS:PortList,
  {bdece0b9-4023-423c-acd8-88b44816faa8}, !- Handle
  {1c3b03ef-5306-46d2-b94f-9d39a1a05bc8}, !- Name
  {166284bb-4a8c-48cb-9b8a-b1a48a37256a}; !- HVAC Component

OS:Sizing:Zone,
  {378962bd-cd70-414d-ad4e-974318ea876f}, !- Handle
  {166284bb-4a8c-48cb-9b8a-b1a48a37256a}, !- Zone or ZoneList Name
  SupplyAirTemperature,                   !- Zone Cooling Design Supply Air Temperature Input Method
  14,                                     !- Zone Cooling Design Supply Air Temperature {C}
  11.11,                                  !- Zone Cooling Design Supply Air Temperature Difference {deltaC}
  SupplyAirTemperature,                   !- Zone Heating Design Supply Air Temperature Input Method
  40,                                     !- Zone Heating Design Supply Air Temperature {C}
  11.11,                                  !- Zone Heating Design Supply Air Temperature Difference {deltaC}
  0.0085,                                 !- Zone Cooling Design Supply Air Humidity Ratio {kg-H2O/kg-air}
  0.008,                                  !- Zone Heating Design Supply Air Humidity Ratio {kg-H2O/kg-air}
  ,                                       !- Zone Heating Sizing Factor
  ,                                       !- Zone Cooling Sizing Factor
  DesignDay,                              !- Cooling Design Air Flow Method
  ,                                       !- Cooling Design Air Flow Rate {m3/s}
  ,                                       !- Cooling Minimum Air Flow per Zone Floor Area {m3/s-m2}
  ,                                       !- Cooling Minimum Air Flow {m3/s}
  ,                                       !- Cooling Minimum Air Flow Fraction
  DesignDay,                              !- Heating Design Air Flow Method
  ,                                       !- Heating Design Air Flow Rate {m3/s}
  ,                                       !- Heating Maximum Air Flow per Zone Floor Area {m3/s-m2}
  ,                                       !- Heating Maximum Air Flow {m3/s}
  ,                                       !- Heating Maximum Air Flow Fraction
  ,                                       !- Design Zone Air Distribution Effectiveness in Cooling Mode
  ,                                       !- Design Zone Air Distribution Effectiveness in Heating Mode
  No,                                     !- Account for Dedicated Outdoor Air System
  NeutralSupplyAir,                       !- Dedicated Outdoor Air System Control Strategy
  autosize,                               !- Dedicated Outdoor Air Low Setpoint Temperature for Design {C}
  autosize;                               !- Dedicated Outdoor Air High Setpoint Temperature for Design {C}

OS:ZoneHVAC:EquipmentList,
  {23544597-23fb-491a-a1f0-3c0c6d3082bd}, !- Handle
  Zone HVAC Equipment List 2,             !- Name
  {166284bb-4a8c-48cb-9b8a-b1a48a37256a}; !- Thermal Zone

OS:Space,
  {6afaf2a5-ae75-45f5-b7b4-2e3245276030}, !- Handle
  OfS OfficeSmall C end_a - Story Ground, !- Name
  {a54ba7c6-e3c1-41da-84d1-ba15f3bc977f}, !- Space Type Name
  ,                                       !- Default Construction Set Name
  ,                                       !- Default Schedule Set Name
  -0,                                     !- Direction of Relative North {deg}
  -13.1995469104057,                      !- X Origin {m}
  4.22769794027045,                       !- Y Origin {m}
  0,                                      !- Z Origin {m}
  {4866a78a-59a2-46c0-89cb-0c604fa1bc03}, !- Building Story Name
  {2206aed4-23a4-4b20-91ad-781295ee927e}; !- Thermal Zone Name

OS:Surface,
  {b822e22a-16d6-4948-ac24-f4395ddbcafa}, !- Handle
  Surface 13,                             !- Name
  Floor,                                  !- Surface Type
  ,                                       !- Construction Name
  {6afaf2a5-ae75-45f5-b7b4-2e3245276030}, !- Space Name
  Ground,                                 !- Outside Boundary Condition
  ,                                       !- Outside Boundary Condition Object
  NoSun,                                  !- Sun Exposure
  NoWind,                                 !- Wind Exposure
  ,                                       !- View Factor to Ground
  ,                                       !- Number of Vertices
  -2.66453525910038e-014, 0, 0,           !- X,Y,Z Vertex 1 {m}
  -2.66453525910038e-014, 4.572, 0,       !- X,Y,Z Vertex 2 {m}
  4.572, 4.572, 0,                        !- X,Y,Z Vertex 3 {m}
  4.572, 0, 0;                            !- X,Y,Z Vertex 4 {m}

OS:Surface,
  {a9a3970f-77fa-4260-8e94-73d3f96a9e1e}, !- Handle
  Surface 14,                             !- Name
  Wall,                                   !- Surface Type
  ,                                       !- Construction Name
  {6afaf2a5-ae75-45f5-b7b4-2e3245276030}, !- Space Name
  Outdoors,                               !- Outside Boundary Condition
  ,                                       !- Outside Boundary Condition Object
  SunExposed,                             !- Sun Exposure
  WindExposed,                            !- Wind Exposure
  ,                                       !- View Factor to Ground
  ,                                       !- Number of Vertices
  -2.66453525910038e-014, 4.572, 3.6576,  !- X,Y,Z Vertex 1 {m}
  -2.66453525910038e-014, 4.572, 0,       !- X,Y,Z Vertex 2 {m}
  -2.66453525910038e-014, 0, 0,           !- X,Y,Z Vertex 3 {m}
  -2.66453525910038e-014, 0, 3.6576;      !- X,Y,Z Vertex 4 {m}

OS:Surface,
  {f50ec21c-61db-40bd-9bb3-79fc11039119}, !- Handle
  Surface 15,                             !- Name
  Wall,                                   !- Surface Type
  ,                                       !- Construction Name
  {6afaf2a5-ae75-45f5-b7b4-2e3245276030}, !- Space Name
  Outdoors,                               !- Outside Boundary Condition
  ,                                       !- Outside Boundary Condition Object
  SunExposed,                             !- Sun Exposure
  WindExposed,                            !- Wind Exposure
  ,                                       !- View Factor to Ground
  ,                                       !- Number of Vertices
  4.572, 4.572, 3.6576,                   !- X,Y,Z Vertex 1 {m}
  4.572, 4.572, 0,                        !- X,Y,Z Vertex 2 {m}
  -2.66453525910038e-014, 4.572, 0,       !- X,Y,Z Vertex 3 {m}
  -2.66453525910038e-014, 4.572, 3.6576;  !- X,Y,Z Vertex 4 {m}

OS:Surface,
  {906de546-bc12-4693-93bb-f94f48e45989}, !- Handle
  Surface 16,                             !- Name
  Wall,                                   !- Surface Type
  ,                                       !- Construction Name