
OS:Version,
  {b16b1a91-d682-4ad2-96b0-93c29b0aac00}, !- Handle
  2.7.0;                                  !- Version Identifier

OS:SpaceType,
  {e9869004-a220-4ae6-9e44-84cc4f10b458}, !- Handle
  RSD Restroom,                           !- Name
  ,                                       !- Default Construction Set Name
  ,                                       !- Default Schedule Set Name
  ,                                       !- Group Rendering Name
  ,                                       !- Design Specification Outdoor Air Object Name
  ,                                       !- Standards Template
  RSD,                                    !- Standards Building Type
  Restroom;                               !- Standards Space Type

OS:SpaceType,
  {cd95351a-007f-4027-afc6-395d01ed5ec9}, !- Handle
  RSD Dining,                             !- Name
  ,                                       !- Default Construction Set Name
  ,                                       !- Default Schedule Set Name
  ,                                       !- Group Rendering Name
  ,                                       !- Design Specification Outdoor Air Object Name
  ,                                       !- Standards Template
  RSD,                                    !- Standards Building Type
  Dining;                                 !- Standards Space Type

OS:SpaceType,
  {b22d6d92-ae26-4b01-937b-721b5f9284fd}, !- Handle
  RSD LobbyWaiting,                       !- Name
  ,                                       !- Default Construction Set Name
  ,                                       !- Default Schedule Set Name
  ,                                       !- Group Rendering Name
  ,                                       !- Design Specification Outdoor Air Object Name
  ,                                       !- Standards Template
  RSD,                                    !- Standards Building Type
  LobbyWaiting;                           !- Standards Space Type

OS:SpaceType,
  {ad180a61-cbdb-4664-9a40-c0781df74b0f}, !- Handle
  RSD Kitchen,                            !- Name
  ,                                       !- Default Construction Set Name
  ,                                       !- Default Schedule Set Name
  ,                                       !- Group Rendering Name
  ,                                       !- Design Specification Outdoor Air Object Name
  ,                                       !- Standards Template
  RSD,                                    !- Standards Building Type
  Kitchen;                                !- Standards Space Type

OS:Building,
  {3069945e-9cb0-49c8-9e72-84e3029aee24}, !- Handle
  DEER Pre-1975|RSD,                      !- Name
  ,                                       !- Building Sector Type
  ,                                       !- North Axis {deg}
  ,                                       !- Nominal Floor to Floor Height {m}
  ,                                       !- Space Type Name
  ,                                       !- Default Construction Set Name
  ;                                       !- Default Schedule Set Name

OS:Site,
  {70188309-0c2b-4a60-a99b-07a3e28fdf3c}, !- Handle
  Site 1,                                 !- Name
  ,                                       !- Latitude {deg}
  ,                                       !- Longitude {deg}
  ,                                       !- Time Zone {hr}
  ,                                       !- Elevation {m}
  ;                                       !- Terrain

OS:BuildingStory,
  {4adb5e04-0074-4595-aadf-86f098e594ca}, !- Handle
  Story Ground,                           !- Name
  0,                                      !- Nominal Z Coordinate {m}
  3.9624,                                 !- Nominal Floor to Floor Height {m}
  ,                                       !- Default Construction Set Name
  ,                                       !- Default Schedule Set Name
  ;                                       !- Group Rendering Name

OS:Space,
  {862f1b05-fc98-4b49-9bb5-a0810c055293}, !- Handle
  RSD Dining A end_a - Story Ground,      !- Name
  {cd95351a-007f-4027-afc6-395d01ed5ec9}, !- Space Type Name
  ,                                       !- Default Construction Set Name
  ,                                       !- Default Schedule Set Name
  -0,                                     !- Direction of Relative North {deg}
  -11.4076261018671,                      !- X Origin {m}
  -11.4076261018671,                      !- Y Origin {m}
  0,                                      !- Z Origin {m}
  {4adb5e04-0074-4595-aadf-86f098e594ca}, !- Building Story Name
  {4762e8ba-fb26-427e-a966-a446bdd5fdce}; !- Thermal Zone Name

OS:Surface,
  {494b4c78-a25c-487c-8436-0b32be6d5c7d}, !- Handle
  Surface 1,                              !- Name
  Floor,                                  !- Surface Type
  ,                                       !- Construction Name
  {862f1b05-fc98-4b49-9bb5-a0810c055293}, !- Space Name
  Ground,                                 !- Outside Boundary Condition
  ,                                       !- Outside Boundary Condition Object
  NoSun,                                  !- Sun Exposure
  NoWind,                                 !- Wind Exposure
  ,                                       !- View Factor to Ground
  ,                                       !- Number of Vertices
  1.95399252334028e-014, 1.95399252334028e-014, 0, !- X,Y,Z Vertex 1 {m}
  1.95399252334028e-014, 4.572, 0,        !- X,Y,Z Vertex 2 {m}
  4.572, 4.572, 0,                        !- X,Y,Z Vertex 3 {m}
  4.572, 1.95399252334028e-014, 0;        !- X,Y,Z Vertex 4 {m}

OS:Surface,
  {f0b01b77-5de9-4e0f-8ba2-06e56bc9f8dd}, !- Handle
  Surface 2,                              !- Name
  Wall,                                   !- Surface Type
  ,                                       !- Construction Name
  {862f1b05-fc98-4b49-9bb5-a0810c055293}, !- Space Name
  Outdoors,                               !- Outside Boundary Condition
  ,                                       !- Outside Boundary Condition Object
  SunExposed,                             !- Sun Exposure
  WindExposed,                            !- Wind Exposure
  ,                                       !- View Factor to Ground
  ,                                       !- Number of Vertices
  1.95399252334028e-014, 4.572, 3.9624,   !- X,Y,Z Vertex 1 {m}
  1.95399252334028e-014, 4.572, 0,        !- X,Y,Z Vertex 2 {m}
  1.95399252334028e-014, 1.95399252334028e-014, 0, !- X,Y,Z Vertex 3 {m}
  1.95399252334028e-014, 1.95399252334028e-014, 3.9624; !- X,Y,Z Vertex 4 {m}

OS:Surface,
  {e9b319c0-7ea4-4d75-9399-695a293086f9}, !- Handle
  Surface 3,                              !- Name
  Wall,                                   !- Surface Type
  ,                                       !- Construction Name
  {862f1b05-fc98-4b49-9bb5-a0810c055293}, !- Space Name
  Surface,                                !- Outside Boundary Condition
  {ab9df139-f9e2-4381-b219-c9f0d3a6b4ba}, !- Outside Boundary Condition Object
  NoSun,                                  !- Sun Exposure
  NoWind,                                 !- Wind Exposure
  ,                                       !- View Factor to Ground
  ,                                       !- Number of Vertices
  4.572, 4.572, 3.9624,                   !- X,Y,Z Vertex 1 {m}
  4.572, 4.572, 0,                        !- X,Y,Z Vertex 2 {m}
  1.95399252334028e-014, 4.572, 0,        !- X,Y,Z Vertex 3 {m}
  1.95399252334028e-014, 4.572, 3.9624;   !- X,Y,Z Vertex 4 {m}

OS:Surface,
  {5e845389-c550-4989-838e-7cac4c3f69db}, !- Handle
  Surface 4,                              !- Name
  Wall,                                   !- Surface Type
  ,                                       !- Construction Name
  {862f1b05-fc98-4b49-9bb5-a0810c055293}, !- Space Name
  Surface,                                !- Outside Boundary Condition
  {510e979a-08d6-4767-8e5c-66930f0f3607}, !- Outside Boundary Condition Object
  NoSun,                                  !- Sun Exposure
  NoWind,                                 !- Wind Exposure
  ,                                       !- View Factor to Ground
  ,                                       !- Number of Vertices
  4.572, 1.95399252334028e-014, 3.9624,   !- X,Y,Z Vertex 1 {m}
  4.572, 1.95399252334028e-014, 0,        !- X,Y,Z Vertex 2 {m}
  4.572, 4.572, 0,                        !- X,Y,Z Vertex 3 {m}
  4.572, 4.572, 3.9624;                   !- X,Y,Z Vertex 4 {m}

OS:Surface,
  {726f0f41-ffb7-47ff-b240-fa86b34aa72f}, !- Handle
  Surface 5,                              !- Name
  Wall,                                   !- Surface Type
  ,                                       !- Construction Name
  {862f1b05-fc98-4b49-9bb5-a0810c055293}, !- Space Name
  Outdoors,                               !- Outside Boundary Condition
  ,                                       !- Outside Boundary Condition Object
  SunExposed,                             !- Sun Exposure
  WindExposed,                            !- Wind Exposure
  ,                                       !- View Factor to Ground
  ,                                       !- Number of Vertices
  1.95399252334028e-014, 1.95399252334028e-014, 3.9624, !- X,Y,Z Vertex 1 {m}
  1.95399252334028e-014, 1.95399252334028e-014, 0, !- X,Y,Z Vertex 2 {m}
  4.572, 1.95399252334028e-014, 0,        !- X,Y,Z Vertex 3 {m}
  4.572, 1.95399252334028e-014, 3.9624;   !- X,Y,Z Vertex 4 {m}

OS:Surface,
  {d072f8ee-d83d-46db-9795-35641d289ba6}, !- Handle
  Surface 6,                              !- Name
  RoofCeiling,                            !- Surface Type
  ,                                       !- Construction Name
  {862f1b05-fc98-4b49-9bb5-a0810c055293}, !- Space Name
  Outdoors,                               !- Outside Boundary Condition
  ,                                       !- Outside Boundary Condition Object
  SunExposed,                             !- Sun Exposure
  WindExposed,                            !- Wind Exposure
  ,                                       !- View Factor to Ground
  ,                                       !- Number of Vertices
  4.572, 1.95399252334028e-014, 3.9624,   !- X,Y,Z Vertex 1 {m}
  4.572, 4.572, 3.9624,                   !- X,Y,Z Vertex 2 {m}
  1.95399252334028e-014, 4.572, 3.9624,   !- X,Y,Z Vertex 3 {m}
  1.95399252334028e-014, 1.95399252334028e-014, 3.9624; !- X,Y,Z Vertex 4 {m}

OS:ThermalZone,
  {4762e8ba-fb26-427e-a966-a446bdd5fdce}, !- Handle
  Zone RSD Dining A end_a - Story Ground, !- Name
  1,                                      !- Multiplier
  ,                                       !- Ceiling Height {m}
  ,                                       !- Volume {m3}
  ,                                       !- Floor Area {m2}
  ,                                       !- Zone Inside Convection Algorithm
  ,                                       !- Zone Outside Convection Algorithm
  ,                                       !- Zone Conditioning Equipment List Name
  {3fd5a7df-06fe-4d6c-9a93-9cc0444f5aaf}, !- Zone Air Inlet Port List
  {494ea1b3-6478-48cf-8602-a6a836cae41d}, !- Zone Air Exhaust Port List
  {e0de4444-e7ee-47b6-b3a6-146eb228e903}, !- Zone Air Node Name
  {355614b5-bdf4-4e3a-a6ae-de4f4593dc6b}, !- Zone Return Air Port List
  ,                                       !- Primary Daylighting Control Name
  ,                                       !- Fraction of Zone Controlled by Primary Daylighting Control
  ,                                       !- Secondary Daylighting Control Name
  ,                                       !- Fraction of Zone Controlled by Secondary Daylighting Control
  ,                                       !- Illuminance Map Name
  ,                                       !- Group Rendering Name
  ,                                       !- Thermostat Name
  No;                                     !- Use Ideal Air Loads

OS:Node,
  {0418238a-97d1-498e-aed3-95f120c89d75}, !- Handle
  Node 1,                                 !- Name
  {e0de4444-e7ee-47b6-b3a6-146eb228e903}, !- Inlet Port
  ;                                       !- Outlet Port

OS:Connection,
  {e0de4444-e7ee-47b6-b3a6-146eb228e903}, !- Handle
  {e1238e7c-25f8-47ac-87ad-e22a426879f4}, !- Name
  {4762e8ba-fb26-427e-a966-a446bdd5fdce}, !- Source Object
  11,                                     !- Outlet Port
  {0418238a-97d1-498e-aed3-95f120c89d75}, !- Target Object
  2;                                      !- Inlet Port

OS:PortList,
  {3fd5a7df-06fe-4d6c-9a93-9cc0444f5aaf}, !- Handle
  {2d7a118a-b2a9-468f-90e7-8c91109d1fb5}, !- Name
  {4762e8ba-fb26-427e-a966-a446bdd5fdce}; !- HVAC Component

OS:PortList,
  {494ea1b3-6478-48cf-8602-a6a836cae41d}, !- Handle
  {4b624093-c4dc-41eb-9f58-52d9fea47c38}, !- Name
  {4762e8ba-fb26-427e-a966-a446bdd5fdce}; !- HVAC Component

OS:PortList,
  {355614b5-bdf4-4e3a-a6ae-de4f4593dc6b}, !- Handle
  {04e82476-c99f-4f48-b071-3a31d2afc12c}, !- Name
  {4762e8ba-fb26-427e-a966-a446bdd5fdce}; !- HVAC Component

OS:Sizing:Zone,
  {bd46d696-4144-4fe5-9f26-006a17047445}, !- Handle
  {4762e8ba-fb26-427e-a966-a446bdd5fdce}, !- Zone or ZoneList Name
  SupplyAirTemperature,                   !- Zone Cooling Design Supply Air Temperature Input Method
  14,                                     !- Zone Cooling Design Supply Air Temperature {C}
  11.11,                                  !- Zone Cooling Design Supply Air Temperature Difference {deltaC}
  SupplyAirTemperature,                   !- Zone Heating Design Supply Air Temperature Input Method
  40,                                     !- Zone Heating Design Supply Air Temperature {C}
  11.11,                                  !- Zone Heating Design Supply Air Temperature Difference {deltaC}
  0.0085,                                 !- Zone Cooling Design Supply Air Humidity Ratio {kg-H2O/kg-air}
  0.008,                                  !- Zone Heating Design Supply Air Humidity Ratio {kg-H2O/kg-air}
  ,                                       !- Zone Heating Sizing Factor
  ,                                       !- Zone Cooling Sizing Factor
  DesignDay,                              !- Cooling Design Air Flow Method
  ,                                       !- Cooling Design Air Flow Rate {m3/s}
  ,                                       !- Cooling Minimum Air Flow per Zone Floor Area {m3/s-m2}
  ,                                       !- Cooling Minimum Air Flow {m3/s}
  ,                                       !- Cooling Minimum Air Flow Fraction
  DesignDay,                              !- Heating Design Air Flow Method
  ,                                       !- Heating Design Air Flow Rate {m3/s}
  ,                                       !- Heating Maximum Air Flow per Zone Floor Area {m3/s-m2}
  ,                                       !- Heating Maximum Air Flow {m3/s}
  ,                                       !- Heating Maximum Air Flow Fraction
  ,                                       !- Design Zone Air Distribution Effectiveness in Cooling Mode
  ,                                       !- Design Zone Air Distribution Effectiveness in Heating Mode
  No,                                     !- Account for Dedicated Outdoor Air System
  NeutralSupplyAir,                       !- Dedicated Outdoor Air System Control Strategy
  autosize,                               !- Dedicated Outdoor Air Low Setpoint Temperature for Design {C}
  autosize;                               !- Dedicated Outdoor Air High Setpoint Temperature for Design {C}

OS:ZoneHVAC:EquipmentList,
  {39d7cd27-9381-4ca2-b72f-cbd52e413b90}, !- Handle
  Zone HVAC Equipment List 1,             !- Name
  {4762e8ba-fb26-427e-a966-a446bdd5fdce}; !- Thermal Zone

OS:Space,
  {48deae82-5de2-41b7-a214-8186619c2d97}, !- Handle
  RSD Dining B end_a - Story Ground,      !- Name
  {cd95351a-007f-4027-afc6-395d01ed5ec9}, !- Space Type Name
  ,                                       !- Default Construction Set Name
  ,                                       !- Default Schedule Set Name
  -0,                                     !- Direction of Relative North {deg}
  -11.4076261018671,                      !- X Origin {m}
  -6.83562610186712,                      !- Y Origin {m}
  0,                                      !- Z Origin {m}
  {4adb5e04-0074-4595-aadf-86f098e594ca}, !- Building Story Name
  {32aac277-49f2-4a47-8330-91c75630381c}; !- Thermal Zone Name

OS:Surface,
  {c32dea33-797e-49f6-92f1-051bc1f70611}, !- Handle
  Surface 7,                              !- Name
  Floor,                                  !- Surface Type
  ,                                       !- Construction Name
  {48deae82-5de2-41b7-a214-8186619c2d97}, !- Space Name
  Ground,                                 !- Outside Boundary Condition
  ,                                       !- Outside Boundary Condition Object
  NoSun,                                  !- Sun Exposure
  NoWind,                                 !- Wind Exposure
  ,                                       !- View Factor to Ground
  ,                                       !- Number of Vertices
  1.95399252334028e-014, 0, 0,            !- X,Y,Z Vertex 1 {m}
  1.95399252334028e-014, 13.6712522037342, 0, !- X,Y,Z Vertex 2 {m}
  4.572, 13.6712522037342, 0,             !- X,Y,Z Vertex 3 {m}
  4.572, 0, 0;                            !- X,Y,Z Vertex 4 {m}

OS:Surface,
  {d0aab535-5eef-4c44-9fbc-f51a99bdc0c8}, !- Handle
  Surface 8,                              !- Name
  Wall,                                   !- Surface Type
  ,                                       !- Construction Name
  {48deae82-5de2-41b7-a214-8186619c2d97}, !- Space Name
  Outdoors,                               !- Outside Boundary Condition
  ,                                       !- Outside Boundary Condition Object
  SunExposed,                             !- Sun Exposure
  WindExposed,                            !- Wind Exposure
  ,                                       !- View Factor to Ground
  ,                                       !- Number of Vertices
  1.95399252334028e-014, 13.6712522037342, 3.9624, !- X,Y,Z Vertex 1 {m}
  1.95399252334028e-014, 13.6712522037342, 0, !- X,Y,Z Vertex 2 {m}
  1.95399252334028e-014, 0, 0,            !- X,Y,Z Vertex 3 {m}
  1.95399252334028e-014, 0, 3.9624;       !- X,Y,Z Vertex 4 {m}

OS:Surface,
  {16c567dd-f576-4952-b3e9-bfd51b31fae5}, !- Handle
  Surface 9,                              !- Name
  Wall,                                   !- Surface Type
  ,                                       !- Construction Name
  {48deae82-5de2-41b7-a214-8186619c2d97}, !- Space Name
  Surface,                                !- Outside Boundary Condition
  {2d1bdddc-2900-4285-99e8-8b3af422d6bb}, !- Outside Boundary Condition Object
  NoSun,                                  !- Sun Exposure
  NoWind,                                 !- Wind Exposure
  ,                                       !- View Factor to Ground
  ,                                       !- Number of Vertices
  4.572, 13.6712522037342, 3.9624,        !- X,Y,Z Vertex 1 {m}
  4.572, 13.6712522037342, 0,             !- X,Y,Z Vertex 2 {m}
  1.95399252334028e-014, 13.6712522037342, 0, !- X,Y,Z Vertex 3 {m}
  1.95399252334028e-014, 13.6712522037342, 3.9624; !- X,Y,Z Vertex 4 {m}

OS:Surface,
  {87c4dfce-9038-4443-8baa-30220e8c5a88}, !- Handle
  Surface 10,                             !- Name
  Wall,                                   !- Surface Type
  ,                                       !- Construction Name
  {48deae82-5de2-41b7-a214-8186619c2d97}, !- Space Name
  Surface,                                !- Outside Boundary Condition
  {efeb1db8-d2d0-44bb-b5d1-f431b22ed9f6}, !- Outside Boundary Condition Object
  NoSun,                                  !- Sun Exposure
  NoWind,                                 !- Wind Exposure
  ,                                       !- View Factor to Ground
  ,                                       !- Number of Vertices
  4.572, 0, 3.9624,                       !- X,Y,Z Vertex 1 {m}
  4.572, 0, 0,                            !- X,Y,Z Vertex 2 {m}
  4.572, 13.6712522037342, 0,             !- X,Y,Z Vertex 3 {m}
  4.572, 13.6712522037342, 3.9624;        !- X,Y,Z Vertex 4 {m}

OS:Surface,
  {ab9df139-f9e2-4381-b219-c9f0d3a6b4ba}, !- Handle
  Surface 11,                             !- Name
  Wall,                                   !- Surface Type
  ,                                       !- Construction Name
  {48deae82-5de2-41b7-a214-8186619c2d97}, !- Space Name
  Surface,                                !- Outside Boundary Condition
  {e9b319c0-7ea4-4d75-9399-695a293086f9}, !- Outside Boundary Condition Object
  NoSun,                                  !- Sun Exposure
  NoWind,                                 !- Wind Exposure
  ,                                       !- View Factor to Ground
  ,                                       !- Number of Vertices
  1.95399252334028e-014, 0, 3.9624,       !- X,Y,Z Vertex 1 {m}
  1.95399252334028e-014, 0, 0,            !- X,Y,Z Vertex 2 {m}
  4.572, 0, 0,                            !- X,Y,Z Vertex 3 {m}
  4.572, 0, 3.9624;                       !- X,Y,Z Vertex 4 {m}

OS:Surface,
  {9b2bf228-999e-458a-8351-3293ad0d9363}, !- Handle
  Surface 12,                             !- Name
  RoofCeiling,                            !- Surface Type
  ,                                       !- Construction Name
  {48deae82-5de2-41b7-a214-8186619c2d97}, !- Space Name
  Outdoors,                               !- Outside Boundary Condition
  ,                                       !- Outside Boundary Condition Object
  SunExposed,                             !- Sun Exposure
  WindExposed,                            !- Wind Exposure
  ,                                       !- View Factor to Ground
  ,                                       !- Number of Vertices
  4.572, 0, 3.9624,                       !- X,Y,Z Vertex 1 {m}
  4.572, 13.6712522037342, 3.9624,        !- X,Y,Z Vertex 2 {m}
  1.95399252334028e-014, 13.6712522037342, 3.9624, !- X,Y,Z Vertex 3 {m}
  1.95399252334028e-014, 0, 3.9624;       !- X,Y,Z Vertex 4 {m}

OS:ThermalZone,
  {32aac277-49f2-4a47-8330-91c75630381c}, !- Handle
  Zone RSD Dining B end_a - Story Ground, !- Name
  1,                                      !- Multiplier
  ,                                       !- Ceiling Height {m}
  ,                                       !- Volume {m3}
  ,                                       !- Floor Area {m2}
  ,                                       !- Zone Inside Convection Algorithm
  ,                                       !- Zone Outside Convection Algorithm
  ,                                       !- Zone Conditioning Equipment List Name
  {7859aabb-3514-4bed-87c6-fe4e8fbd2ae0}, !- Zone Air Inlet Port List
  {5ad93e22-b79c-4b18-859e-04f3df4f57bf}, !- Zone Air Exhaust Port List
  {45b71948-0565-4f15-b628-729e98f8ae1b}, !- Zone Air Node Name
  {692c82fb-e606-431a-95fe-2d11d8d4fc88}, !- Zone Return Air Port List
  ,                                       !- Primary Daylighting Control Name
  ,                                       !- Fraction of Zone Controlled by Primary Daylighting Control
  ,                                       !- Secondary Daylighting Control Name
  ,                                       !- Fraction of Zone Controlled by Secondary Daylighting Control
  ,                                       !- Illuminance Map Name
  ,                                       !- Group Rendering Name
  ,                                       !- Thermostat Name
  No;                                     !- Use Ideal Air Loads

OS:Node,
  {0e0454a3-a315-47de-8140-07e43de82cf2}, !- Handle
  Node 2,                                 !- Name
  {45b71948-0565-4f15-b628-729e98f8ae1b}, !- Inlet Port
  ;                                       !- Outlet Port

OS:Connection,
  {45b71948-0565-4f15-b628-729e98f8ae1b}, !- Handle
  {f180aa38-20a2-4f27-8eab-33881f15c9f0}, !- Name
  {32aac277-49f2-4a47-8330-91c75630381c}, !- Source Object
  11,                                     !- Outlet Port
  {0e0454a3-a315-47de-8140-07e43de82cf2}, !- Target Object
  2;                                      !- Inlet Port

OS:PortList,
  {7859aabb-3514-4bed-87c6-fe4e8fbd2ae0}, !- Handle
  {ce4cdc2b-e8b0-400f-a546-1683cd9ed025}, !- Name
  {32aac277-49f2-4a47-8330-91c75630381c}; !- HVAC Component

OS:PortList,
  {5ad93e22-b79c-4b18-859e-04f3df4f57bf}, !- Handle
  {46b0536a-7426-46ca-8596-a343969b43c1}, !- Name
  {32aac277-49f2-4a47-8330-91c75630381c}; !- HVAC Component

OS:PortList,
  {692c82fb-e606-431a-95fe-2d11d8d4fc88}, !- Handle
  {353bdacc-9ce0-44b8-9612-a0f7ab4fdfc9}, !- Name
  {32aac277-49f2-4a47-8330-91c75630381c}; !- HVAC Component

OS:Sizing:Zone,
  {02476c09-e893-4145-838f-f37dcc0f7521}, !- Handle
  {32aac277-49f2-4a47-8330-91c75630381c}, !- Zone or ZoneList Name
  SupplyAirTemperature,                   !- Zone Cooling Design Supply Air Temperature Input Method
  14,                                     !- Zone Cooling Design Supply Air Temperature {C}
  11.11,                                  !- Zone Cooling Design Supply Air Temperature Difference {deltaC}
  SupplyAirTemperature,                   !- Zone Heating Design Supply Air Temperature Input Method
  40,                                     !- Zone Heating Design Supply Air Temperature {C}
  11.11,                                  !- Zone Heating Design Supply Air Temperature Difference {deltaC}
  0.0085,                                 !- Zone Cooling Design Supply Air Humidity Ratio {kg-H2O/kg-air}
  0.008,                                  !- Zone Heating Design Supply Air Humidity Ratio {kg-H2O/kg-air}
  ,                                       !- Zone Heating Sizing Factor
  ,                                       !- Zone Cooling Sizing Factor
  DesignDay,                              !- Cooling Design Air Flow Method
  ,                                       !- Cooling Design Air Flow Rate {m3/s}
  ,                                       !- Cooling Minimum Air Flow per Zone Floor Area {m3/s-m2}
  ,                                       !- Cooling Minimum Air Flow {m3/s}
  ,                                       !- Cooling Minimum Air Flow Fraction
  DesignDay,                              !- Heating Design Air Flow Method
  ,                                       !- Heating Design Air Flow Rate {m3/s}
  ,                                       !- Heating Maximum Air Flow per Zone Floor Area {m3/s-m2}
  ,                                       !- Heating Maximum Air Flow {m3/s}
  ,                                       !- Heating Maximum Air Flow Fraction
  ,                                       !- Design Zone Air Distribution Effectiveness in Cooling Mode
  ,                                       !- Design Zone Air Distribution Effectiveness in Heating Mode
  No,                                     !- Account for Dedicated Outdoor Air System
  NeutralSupplyAir,                       !- Dedicated Outdoor Air System Control Strategy
  autosize,                               !- Dedicated Outdoor Air Low Setpoint Temperature for Design {C}
  autosize;                               !- Dedicated Outdoor Air High Setpoint Temperature for Design {C}

OS:ZoneHVAC:EquipmentList,
  {4a5e057f-ce12-4454-bbc7-9c773dc14cab}, !- Handle
  Zone HVAC Equipment List 2,             !- Name
  {32aac277-49f2-4a47-8330-91c75630381c}; !- Thermal Zone

OS:Space,
  {853a20ab-d9a7-4d39-926c-ea78812b62e8}, !- Handle
  RSD Dining C end_a - Story Ground,      !- Name
  {cd95351a-007f-4027-afc6-395d01ed5ec9}, !- Space Type Name
  ,                                       !- Default Construction Set Name
  ,                                       !- Default Schedule Set Name
  -0,                                     !- Direction of Relative North {deg}
  -11.4076261018671,                      !- X Origin {m}
  6.83562610186712,                       !- Y Origin {m}
  0,                                      !- Z Origin {m}
  {4adb5e04-0074-4595-aadf-86f098e594ca}, !- Building Story Name
  {0fa72179-9444-4171-9f4f-8d1893e1a49e}; !- Thermal Zone Name

OS:Surface,
  {ced77b9f-0514-4967-bc75-0cd866617a4b}, !- Handle
  Surface 13,                             !- Name
  Floor,                                  !- Surface Type
  ,                                       !- Construction Name
  {853a20ab-d9a7-4d39-926c-ea78812b62e8}, !- Space Name
  Ground,                                 !- Outside Boundary Condition
  ,                                       !- Outside Boundary Condition Object
  NoSun,                                  !- Sun Exposure
  NoWind,                                 !- Wind Exposure
  ,                                       !- View Factor to Ground
  ,                                       !- Number of Vertices
  1.95399252334028e-014, 0, 0,            !- X,Y,Z Vertex 1 {m}
  1.95399252334028e-014, 4.57199999999998, 0, !- X,Y,Z Vertex 2 {m}
  4.572, 4.57199999999998, 0,             !- X,Y,Z Vertex 3 {m}
  4.572, 0, 0;                            !- X,Y,Z Vertex 4 {m}

OS:Surface,
  {4bb0ba7f-4b31-4504-bac7-706f404aeda0}, !- Handle
  Surface 14,                             !- Name
  Wall,                                   !- Surface Type
  ,                                       !- Construction Name
  {853a20ab-d9a7-4d39-926c-ea78812b62e8}, !- Space Name
  Outdoors,                               !- Outside Boundary Condition
  ,                                       !- Outside Boundary Condition Object
  SunExposed,                             !- Sun Exposure
  WindExposed,                            !- Wind Exposure
  ,                                       !- View Factor to Ground
  ,                                       !- Number of Vertices
  1.95399252334028e-014, 4.57199999999998, 3.9624, !- X,Y,Z Vertex 1 {m}
  1.95399252334028e-014, 4.57199999999998, 0, !- X,Y,Z Vertex 2 {m}