
OS:Version,
  {670e9fde-b159-4961-b0ea-3cedeac238dc}, !- Handle
  2.7.0;                                  !- Version Identifier

OS:SpaceType,
  {0986eaf7-4470-4faa-b730-ac8c2f176007}, !- Handle
  Rt3 RetailSales,                        !- Name
  ,                                       !- Default Construction Set Name
  ,                                       !- Default Schedule Set Name
  ,                                       !- Group Rendering Name
  ,                                       !- Design Specification Outdoor Air Object Name
  ,                                       !- Standards Template
  Rt3,                                    !- Standards Building Type
  RetailSales;                            !- Standards Space Type

OS:Building,
  {1f12aad1-23a1-4eda-8122-bd5edf95d96c}, !- Handle
  DEER Pre-1975|Rt3,                      !- Name
  ,                                       !- Building Sector Type
  ,                                       !- North Axis {deg}
  ,                                       !- Nominal Floor to Floor Height {m}
  ,                                       !- Space Type Name
  ,                                       !- Default Construction Set Name
  ;                                       !- Default Schedule Set Name

OS:Site,
  {820a965a-f235-4b69-85be-29251b6751ab}, !- Handle
  Site 1,                                 !- Name
  ,                                       !- Latitude {deg}
  ,                                       !- Longitude {deg}
  ,                                       !- Time Zone {hr}
  ,                                       !- Elevation {m}
  ;                                       !- Terrain

OS:BuildingStory,
  {aa101180-ae80-41d5-970f-c82e132aa9fd}, !- Handle
  Story Ground,                           !- Name
  0,                                      !- Nominal Z Coordinate {m}
  6.33984,                                !- Nominal Floor to Floor Height {m}
  ,                                       !- Default Construction Set Name
  ,                                       !- Default Schedule Set Name
  ;                                       !- Group Rendering Name

OS:Space,
  {b0082871-6bf2-4400-97b4-8ffc58ec7cc6}, !- Handle
  Rt3 RetailSales A end_a - Story Ground, !- Name
  {0986eaf7-4470-4faa-b730-ac8c2f176007}, !- Space Type Name
  ,                                       !- Default Construction Set Name
  ,                                       !- Default Schedule Set Name
  -0,                                     !- Direction of Relative North {deg}
  -30.48,                                 !- X Origin {m}
  -30.48,                                 !- Y Origin {m}
  0,                                      !- Z Origin {m}
  {aa101180-ae80-41d5-970f-c82e132aa9fd}, !- Building Story Name
  {132a2240-c4fa-478c-ba9c-2d8095023fce}; !- Thermal Zone Name

OS:Surface,
  {6b8d623d-6b17-4ab5-81fe-50aa7befd0ea}, !- Handle
  Surface 1,                              !- Name
  Floor,                                  !- Surface Type
  ,                                       !- Construction Name
  {b0082871-6bf2-4400-97b4-8ffc58ec7cc6}, !- Space Name
  Ground,                                 !- Outside Boundary Condition
  ,                                       !- Outside Boundary Condition Object
  NoSun,                                  !- Sun Exposure
  NoWind,                                 !- Wind Exposure
  ,                                       !- View Factor to Ground
  ,                                       !- Number of Vertices
  3.5527136788005e-015, 0, 0,             !- X,Y,Z Vertex 1 {m}
  3.5527136788005e-015, 4.572, 0,         !- X,Y,Z Vertex 2 {m}
  4.572, 4.572, 0,                        !- X,Y,Z Vertex 3 {m}
  4.572, 0, 0;                            !- X,Y,Z Vertex 4 {m}

OS:Surface,
  {cb3b76f9-77ef-48c5-b557-ea04e9a45861}, !- Handle
  Surface 2,                              !- Name
  Wall,                                   !- Surface Type
  ,                                       !- Construction Name
  {b0082871-6bf2-4400-97b4-8ffc58ec7cc6}, !- Space Name
  Outdoors,                               !- Outside Boundary Condition
  ,                                       !- Outside Boundary Condition Object
  SunExposed,                             !- Sun Exposure
  WindExposed,                            !- Wind Exposure
  ,                                       !- View Factor to Ground
  ,                                       !- Number of Vertices
  3.5527136788005e-015, 4.572, 6.33984,   !- X,Y,Z Vertex 1 {m}
  3.5527136788005e-015, 4.572, 0,         !- X,Y,Z Vertex 2 {m}
  3.5527136788005e-015, 0, 0,             !- X,Y,Z Vertex 3 {m}
  3.5527136788005e-015, 0, 6.33984;       !- X,Y,Z Vertex 4 {m}

OS:Surface,
  {3f21a750-7a39-44df-bb23-bf0c96115516}, !- Handle
  Surface 3,                              !- Name
  Wall,                                   !- Surface Type
  ,                                       !- Construction Name
  {b0082871-6bf2-4400-97b4-8ffc58ec7cc6}, !- Space Name
  Surface,                                !- Outside Boundary Condition
  {f4a28b65-874f-4664-9e6e-3e68fbb877a2}, !- Outside Boundary Condition Object
  NoSun,                                  !- Sun Exposure
  NoWind,                                 !- Wind Exposure
  ,                                       !- View Factor to Ground
  ,                                       !- Number of Vertices
  4.572, 4.572, 6.33984,                  !- X,Y,Z Vertex 1 {m}
  4.572, 4.572, 0,                        !- X,Y,Z Vertex 2 {m}
  3.5527136788005e-015, 4.572, 0,         !- X,Y,Z Vertex 3 {m}
  3.5527136788005e-015, 4.572, 6.33984;   !- X,Y,Z Vertex 4 {m}

OS:Surface,
  {8df90c0f-27b2-4b2e-9030-a766e2cd7819}, !- Handle
  Surface 4,                              !- Name
  Wall,                                   !- Surface Type
  ,                                       !- Construction Name
  {b0082871-6bf2-4400-97b4-8ffc58ec7cc6}, !- Space Name
  Surface,                                !- Outside Boundary Condition
  {bf67c81e-e891-4a97-8298-754b624d7eaa}, !- Outside Boundary Condition Object
  NoSun,                                  !- Sun Exposure
  NoWind,                                 !- Wind Exposure
  ,                                       !- View Factor to Ground
  ,                                       !- Number of Vertices
  4.572, 0, 6.33984,                      !- X,Y,Z Vertex 1 {m}
  4.572, 0, 0,                            !- X,Y,Z Vertex 2 {m}
  4.572, 4.572, 0,                        !- X,Y,Z Vertex 3 {m}
  4.572, 4.572, 6.33984;                  !- X,Y,Z Vertex 4 {m}

OS:Surface,
  {a56d15ec-08f2-43eb-b78e-b03cb73ff09b}, !- Handle
  Surface 5,                              !- Name
  Wall,                                   !- Surface Type
  ,                                       !- Construction Name
  {b0082871-6bf2-4400-97b4-8ffc58ec7cc6}, !- Space Name
  Outdoors,                               !- Outside Boundary Condition
  ,                                       !- Outside Boundary Condition Object
  SunExposed,                             !- Sun Exposure
  WindExposed,                            !- Wind Exposure
  ,                                       !- View Factor to Ground
  ,                                       !- Number of Vertices
  3.5527136788005e-015, 0, 6.33984,       !- X,Y,Z Vertex 1 {m}
  3.5527136788005e-015, 0, 0,             !- X,Y,Z Vertex 2 {m}
  4.572, 0, 0,                            !- X,Y,Z Vertex 3 {m}
  4.572, 0, 6.33984;                      !- X,Y,Z Vertex 4 {m}

OS:Surface,
  {d4df1ca3-ad75-4946-a97e-f97d9b847904}, !- Handle
  Surface 6,                              !- Name
  RoofCeiling,                            !- Surface Type
  ,                                       !- Construction Name
  {b0082871-6bf2-4400-97b4-8ffc58ec7cc6}, !- Space Name
  Surface,                                !- Outside Boundary Condition
  {8926e3b0-27cc-4aba-9ad4-1ddc4a8761b4}, !- Outside Boundary Condition Object
  NoSun,                                  !- Sun Exposure
  NoWind,                                 !- Wind Exposure
  ,                                       !- View Factor to Ground
  ,                                       !- Number of Vertices
  4.572, 0, 6.33984,                      !- X,Y,Z Vertex 1 {m}
  4.572, 4.572, 6.33984,                  !- X,Y,Z Vertex 2 {m}
  3.5527136788005e-015, 4.572, 6.33984,   !- X,Y,Z Vertex 3 {m}
  3.5527136788005e-015, 0, 6.33984;       !- X,Y,Z Vertex 4 {m}

OS:ThermalZone,
  {132a2240-c4fa-478c-ba9c-2d8095023fce}, !- Handle
  Zone Rt3 RetailSales A end_a - Story Ground, !- Name
  1,                                      !- Multiplier
  ,                                       !- Ceiling Height {m}
  ,                                       !- Volume {m3}
  ,                                       !- Floor Area {m2}
  ,                                       !- Zone Inside Convection Algorithm
  ,                                       !- Zone Outside Convection Algorithm
  ,                                       !- Zone Conditioning Equipment List Name
  {6e30bef5-8d34-416d-b230-efdbddf01d4c}, !- Zone Air Inlet Port List
  {f9d71749-14d2-48e4-946a-27c427a1b12e}, !- Zone Air Exhaust Port List
  {a2228e49-dd29-4ec1-a283-ac9f7646a044}, !- Zone Air Node Name
  {3f998b44-4ef1-4d6b-987c-2d2ae47c0a6a}, !- Zone Return Air Port List
  ,                                       !- Primary Daylighting Control Name
  ,                                       !- Fraction of Zone Controlled by Primary Daylighting Control
  ,                                       !- Secondary Daylighting Control Name
  ,                                       !- Fraction of Zone Controlled by Secondary Daylighting Control
  ,                                       !- Illuminance Map Name
  ,                                       !- Group Rendering Name
  ,                                       !- Thermostat Name
  No;                                     !- Use Ideal Air Loads

OS:Node,
  {bc8a09bd-7ec6-4a9e-9249-c24f1794bc59}, !- Handle
  Node 1,                                 !- Name
  {a2228e49-dd29-4ec1-a283-ac9f7646a044}, !- Inlet Port
  ;                                       !- Outlet Port

OS:Connection,
  {a2228e49-dd29-4ec1-a283-ac9f7646a044}, !- Handle
  {8145492b-6bed-4902-8a02-167cd3e724b0}, !- Name
  {132a2240-c4fa-478c-ba9c-2d8095023fce}, !- Source Object
  11,                                     !- Outlet Port
  {bc8a09bd-7ec6-4a9e-9249-c24f1794bc59}, !- Target Object
  2;                                      !- Inlet Port

OS:PortList,
  {6e30bef5-8d34-416d-b230-efdbddf01d4c}, !- Handle
  {c7bb6a36-b87f-45e5-b849-32fd39006d41}, !- Name
  {132a2240-c4fa-478c-ba9c-2d8095023fce}; !- HVAC Component

OS:PortList,
  {f9d71749-14d2-48e4-946a-27c427a1b12e}, !- Handle
  {b714d78e-4f45-4976-8647-28aff8bef146}, !- Name
  {132a2240-c4fa-478c-ba9c-2d8095023fce}; !- HVAC Component

OS:PortList,
  {3f998b44-4ef1-4d6b-987c-2d2ae47c0a6a}, !- Handle
  {b55dde73-736b-41bd-b9af-19b92ba455a6}, !- Name
  {132a2240-c4fa-478c-ba9c-2d8095023fce}; !- HVAC Component

OS:Sizing:Zone,
  {cae92271-4577-4ca6-8ee0-3f65814f4fb4}, !- Handle
  {132a2240-c4fa-478c-ba9c-2d8095023fce}, !- Zone or ZoneList Name
  SupplyAirTemperature,                   !- Zone Cooling Design Supply Air Temperature Input Method
  14,                                     !- Zone Cooling Design Supply Air Temperature {C}
  11.11,                                  !- Zone Cooling Design Supply Air Temperature Difference {deltaC}
  SupplyAirTemperature,                   !- Zone Heating Design Supply Air Temperature Input Method
  40,                                     !- Zone Heating Design Supply Air Temperature {C}
  11.11,                                  !- Zone Heating Design Supply Air Temperature Difference {deltaC}
  0.0085,                                 !- Zone Cooling Design Supply Air Humidity Ratio {kg-H2O/kg-air}
  0.008,                                  !- Zone Heating Design Supply Air Humidity Ratio {kg-H2O/kg-air}
  ,                                       !- Zone Heating Sizing Factor
  ,                                       !- Zone Cooling Sizing Factor
  DesignDay,                              !- Cooling Design Air Flow Method
  ,                                       !- Cooling Design Air Flow Rate {m3/s}
  ,                                       !- Cooling Minimum Air Flow per Zone Floor Area {m3/s-m2}
  ,                                       !- Cooling Minimum Air Flow {m3/s}
  ,                                       !- Cooling Minimum Air Flow Fraction
  DesignDay,                              !- Heating Design Air Flow Method
  ,                                       !- Heating Design Air Flow Rate {m3/s}
  ,                                       !- Heating Maximum Air Flow per Zone Floor Area {m3/s-m2}
  ,                                       !- Heating Maximum Air Flow {m3/s}
  ,                                       !- Heating Maximum Air Flow Fraction
  ,                                       !- Design Zone Air Distribution Effectiveness in Cooling Mode
  ,                                       !- Design Zone Air Distribution Effectiveness in Heating Mode
  No,                                     !- Account for Dedicated Outdoor Air System
  NeutralSupplyAir,                       !- Dedicated Outdoor Air System Control Strategy
  autosize,                               !- Dedicated Outdoor Air Low Setpoint Temperature for Design {C}
  autosize;                               !- Dedicated Outdoor Air High Setpoint Temperature for Design {C}

OS:ZoneHVAC:EquipmentList,
  {3899cfd7-aba5-4307-9f73-e545b9bb4381}, !- Handle
  Zone HVAC Equipment List 1,             !- Name
  {132a2240-c4fa-478c-ba9c-2d8095023fce}; !- Thermal Zone

OS:Space,
  {b12ee6e5-9ff2-43e2-85d7-f79c8b4bd150}, !- Handle
  Rt3 RetailSales B end_a - Story Ground, !- Name
  {0986eaf7-4470-4faa-b730-ac8c2f176007}, !- Space Type Name
  ,                                       !- Default Construction Set Name
  ,                                       !- Default Schedule Set Name
  -0,                                     !- Direction of Relative North {deg}
  -30.48,                                 !- X Origin {m}
  -25.908,                                !- Y Origin {m}
  0,                                      !- Z Origin {m}
  {aa101180-ae80-41d5-970f-c82e132aa9fd}, !- Building Story Name
  {59951897-f0d9-4c4c-b123-54c210be1d9d}; !- Thermal Zone Name

OS:Surface,
  {99f6fa65-da04-4348-9d25-acd46bbeccaa}, !- Handle
  Surface 7,                              !- Name
  Floor,                                  !- Surface Type
  ,                                       !- Construction Name
  {b12ee6e5-9ff2-43e2-85d7-f79c8b4bd150}, !- Space Name
  Ground,                                 !- Outside Boundary Condition
  ,                                       !- Outside Boundary Condition Object
  NoSun,                                  !- Sun Exposure
  NoWind,                                 !- Wind Exposure
  ,                                       !- View Factor to Ground
  ,                                       !- Number of Vertices
  3.5527136788005e-015, 0, 0,             !- X,Y,Z Vertex 1 {m}
  3.5527136788005e-015, 51.816, 0,        !- X,Y,Z Vertex 2 {m}
  4.572, 51.816, 0,                       !- X,Y,Z Vertex 3 {m}
  4.572, 0, 0;                            !- X,Y,Z Vertex 4 {m}

OS:Surface,
  {5652d0ed-927a-465b-903a-40d01726f8c1}, !- Handle
  Surface 8,                              !- Name
  Wall,                                   !- Surface Type
  ,                                       !- Construction Name
  {b12ee6e5-9ff2-43e2-85d7-f79c8b4bd150}, !- Space Name
  Outdoors,                               !- Outside Boundary Condition
  ,                                       !- Outside Boundary Condition Object
  SunExposed,                             !- Sun Exposure
  WindExposed,                            !- Wind Exposure
  ,                                       !- View Factor to Ground
  ,                                       !- Number of Vertices
  3.5527136788005e-015, 51.816, 6.33984,  !- X,Y,Z Vertex 1 {m}
  3.5527136788005e-015, 51.816, 0,        !- X,Y,Z Vertex 2 {m}
  3.5527136788005e-015, 0, 0,             !- X,Y,Z Vertex 3 {m}
  3.5527136788005e-015, 0, 6.33984;       !- X,Y,Z Vertex 4 {m}

OS:Surface,
  {ad9cc017-c631-4fd7-8ff2-7d854f1a8ff7}, !- Handle
  Surface 9,                              !- Name
  Wall,                                   !- Surface Type
  ,                                       !- Construction Name
  {b12ee6e5-9ff2-43e2-85d7-f79c8b4bd150}, !- Space Name
  Surface,                                !- Outside Boundary Condition
  {ea3d42ba-5ca8-482f-94fb-e7dd622dedc9}, !- Outside Boundary Condition Object
  NoSun,                                  !- Sun Exposure
  NoWind,                                 !- Wind Exposure
  ,                                       !- View Factor to Ground
  ,                                       !- Number of Vertices
  4.572, 51.816, 6.33984,                 !- X,Y,Z Vertex 1 {m}
  4.572, 51.816, 0,                       !- X,Y,Z Vertex 2 {m}
  3.5527136788005e-015, 51.816, 0,        !- X,Y,Z Vertex 3 {m}
  3.5527136788005e-015, 51.816, 6.33984;  !- X,Y,Z Vertex 4 {m}

OS:Surface,
  {e7441523-5bff-4ee9-873a-8cbe27f69cd4}, !- Handle
  Surface 10,                             !- Name
  Wall,                                   !- Surface Type
  ,                                       !- Construction Name
  {b12ee6e5-9ff2-43e2-85d7-f79c8b4bd150}, !- Space Name
  Surface,                                !- Outside Boundary Condition
  {f48ab6ea-cd3f-4759-83d4-dfbb8c6635fc}, !- Outside Boundary Condition Object
  NoSun,                                  !- Sun Exposure
  NoWind,                                 !- Wind Exposure
  ,                                       !- View Factor to Ground
  ,                                       !- Number of Vertices
  4.572, 0, 6.33984,                      !- X,Y,Z Vertex 1 {m}
  4.572, 0, 0,                            !- X,Y,Z Vertex 2 {m}
  4.572, 51.816, 0,                       !- X,Y,Z Vertex 3 {m}
  4.572, 51.816, 6.33984;                 !- X,Y,Z Vertex 4 {m}

OS:Surface,
  {f4a28b65-874f-4664-9e6e-3e68fbb877a2}, !- Handle
  Surface 11,                             !- Name
  Wall,                                   !- Surface Type
  ,                                       !- Construction Name
  {b12ee6e5-9ff2-43e2-85d7-f79c8b4bd150}, !- Space Name
  Surface,                                !- Outside Boundary Condition
  {3f21a750-7a39-44df-bb23-bf0c96115516}, !- Outside Boundary Condition Object
  NoSun,                                  !- Sun Exposure
  NoWind,                                 !- Wind Exposure
  ,                                       !- View Factor to Ground
  ,                                       !- Number of Vertices
  3.5527136788005e-015, 0, 6.33984,       !- X,Y,Z Vertex 1 {m}
  3.5527136788005e-015, 0, 0,             !- X,Y,Z Vertex 2 {m}
  4.572, 0, 0,                            !- X,Y,Z Vertex 3 {m}
  4.572, 0, 6.33984;                      !- X,Y,Z Vertex 4 {m}

OS:Surface,
  {63ae8f32-cef8-4c70-90eb-f62839ff5d56}, !- Handle
  Surface 12,                             !- Name
  RoofCeiling,                            !- Surface Type
  ,                                       !- Construction Name
  {b12ee6e5-9ff2-43e2-85d7-f79c8b4bd150}, !- Space Name
  Surface,                                !- Outside Boundary Condition
  {85e5559b-6139-4ea0-bacd-a51e29d272dd}, !- Outside Boundary Condition Object
  NoSun,                                  !- Sun Exposure
  NoWind,                                 !- Wind Exposure
  ,                                       !- View Factor to Ground
  ,                                       !- Number of Vertices
  4.572, 0, 6.33984,                      !- X,Y,Z Vertex 1 {m}
  4.572, 51.816, 6.33984,                 !- X,Y,Z Vertex 2 {m}
  3.5527136788005e-015, 51.816, 6.33984,  !- X,Y,Z Vertex 3 {m}
  3.5527136788005e-015, 0, 6.33984;       !- X,Y,Z Vertex 4 {m}

OS:ThermalZone,
  {59951897-f0d9-4c4c-b123-54c210be1d9d}, !- Handle
  Zone Rt3 RetailSales B end_a - Story Ground, !- Name
  1,                                      !- Multiplier
  ,                                       !- Ceiling Height {m}
  ,                                       !- Volume {m3}
  ,                                       !- Floor Area {m2}
  ,                                       !- Zone Inside Convection Algorithm
  ,                                       !- Zone Outside Convection Algorithm
  ,                                       !- Zone Conditioning Equipment List Name
  {f6a67841-bbfc-46ca-a869-017b1dfb470a}, !- Zone Air Inlet Port List
  {f1c46122-2f43-4cea-b727-72ee7b1b15ea}, !- Zone Air Exhaust Port List
  {4695c0e4-b5d1-489f-8499-e6768b0a4bfa}, !- Zone Air Node Name
  {e3531f15-0c12-499a-a5fc-885c79932156}, !- Zone Return Air Port List
  ,                                       !- Primary Daylighting Control Name
  ,                                       !- Fraction of Zone Controlled by Primary Daylighting Control
  ,                                       !- Secondary Daylighting Control Name
  ,                                       !- Fraction of Zone Controlled by Secondary Daylighting Control
  ,                                       !- Illuminance Map Name
  ,                                       !- Group Rendering Name
  ,                                       !- Thermostat Name
  No;                                     !- Use Ideal Air Loads

OS:Node,
  {e753c4de-1f79-45a3-9f18-fc48b1edc6d0}, !- Handle
  Node 2,                                 !- Name
  {4695c0e4-b5d1-489f-8499-e6768b0a4bfa}, !- Inlet Port
  ;                                       !- Outlet Port

OS:Connection,
  {4695c0e4-b5d1-489f-8499-e6768b0a4bfa}, !- Handle
  {2cc98cbc-8e0e-4ff7-8a96-8ddc412cd4fc}, !- Name
  {59951897-f0d9-4c4c-b123-54c210be1d9d}, !- Source Object
  11,                                     !- Outlet Port
  {e753c4de-1f79-45a3-9f18-fc48b1edc6d0}, !- Target Object
  2;                                      !- Inlet Port

OS:PortList,
  {f6a67841-bbfc-46ca-a869-017b1dfb470a}, !- Handle
  {07d1598c-1a6e-438f-aa4e-25b491a5f3cd}, !- Name
  {59951897-f0d9-4c4c-b123-54c210be1d9d}; !- HVAC Component

OS:PortList,
  {f1c46122-2f43-4cea-b727-72ee7b1b15ea}, !- Handle
  {0f223f2e-d98d-4127-b847-023c0c7bdf43}, !- Name
  {59951897-f0d9-4c4c-b123-54c210be1d9d}; !- HVAC Component

OS:PortList,
  {e3531f15-0c12-499a-a5fc-885c79932156}, !- Handle
  {2abd983a-75ff-40aa-a82b-7aefb6fec507}, !- Name
  {59951897-f0d9-4c4c-b123-54c210be1d9d}; !- HVAC Component

OS:Sizing:Zone,
  {fb7c425c-04ab-42fb-90f4-9c436bcdaeb5}, !- Handle
  {59951897-f0d9-4c4c-b123-54c210be1d9d}, !- Zone or ZoneList Name
  SupplyAirTemperature,                   !- Zone Cooling Design Supply Air Temperature Input Method
  14,                                     !- Zone Cooling Design Supply Air Temperature {C}
  11.11,                                  !- Zone Cooling Design Supply Air Temperature Difference {deltaC}
  SupplyAirTemperature,                   !- Zone Heating Design Supply Air Temperature Input Method
  40,                                     !- Zone Heating Design Supply Air Temperature {C}
  11.11,                                  !- Zone Heating Design Supply Air Temperature Difference {deltaC}
  0.0085,                                 !- Zone Cooling Design Supply Air Humidity Ratio {kg-H2O/kg-air}
  0.008,                                  !- Zone Heating Design Supply Air Humidity Ratio {kg-H2O/kg-air}
  ,                                       !- Zone Heating Sizing Factor
  ,                                       !- Zone Cooling Sizing Factor
  DesignDay,                              !- Cooling Design Air Flow Method
  ,                                       !- Cooling Design Air Flow Rate {m3/s}
  ,                                       !- Cooling Minimum Air Flow per Zone Floor Area {m3/s-m2}
  ,                                       !- Cooling Minimum Air Flow {m3/s}
  ,                                       !- Cooling Minimum Air Flow Fraction
  DesignDay,                              !- Heating Design Air Flow Method
  ,                                       !- Heating Design Air Flow Rate {m3/s}
  ,                                       !- Heating Maximum Air Flow per Zone Floor Area {m3/s-m2}
  ,                                       !- Heating Maximum Air Flow {m3/s}
  ,                                       !- Heating Maximum Air Flow Fraction
  ,                                       !- Design Zone Air Distribution Effectiveness in Cooling Mode
  ,                                       !- Design Zone Air Distribution Effectiveness in Heating Mode
  No,                                     !- Account for Dedicated Outdoor Air System
  NeutralSupplyAir,                       !- Dedicated Outdoor Air System Control Strategy
  autosize,                               !- Dedicated Outdoor Air Low Setpoint Temperature for Design {C}
  autosize;                               !- Dedicated Outdoor Air High Setpoint Temperature for Design {C}

OS:ZoneHVAC:EquipmentList,
  {817517c3-2fd3-43e7-9637-8d6810088d3e}, !- Handle
  Zone HVAC Equipment List 2,             !- Name
  {59951897-f0d9-4c4c-b123-54c210be1d9d}; !- Thermal Zone

OS:Space,
  {58dcf22a-76f4-49d9-b7d5-72712d21976e}, !- Handle
  Rt3 RetailSales C end_a - Story Ground, !- Name
  {0986eaf7-4470-4faa-b730-ac8c2f176007}, !- Space Type Name
  ,                                       !- Default Construction Set Name
  ,                                       !- Default Schedule Set Name
  -0,                                     !- Direction of Relative North {deg}
  -30.48,                                 !- X Origin {m}
  25.908,                                 !- Y Origin {m}
  0,                                      !- Z Origin {m}
  {aa101180-ae80-41d5-970f-c82e132aa9fd}, !- Building Story Name
  {ac808236-eedc-4968-9aa4-97c6b7f50e5e}; !- Thermal Zone Name

OS:Surface,
  {e5ebe124-1454-4bbf-862f-59e16dd12597}, !- Handle
  Surface 13,                             !- Name
  Floor,                                  !- Surface Type
  ,                                       !- Construction Name
  {58dcf22a-76f4-49d9-b7d5-72712d21976e}, !- Space Name
  Ground,                                 !- Outside Boundary Condition
  ,                                       !- Outside Boundary Condition Object
  NoSun,                                  !- Sun Exposure
  NoWind,                                 !- Wind Exposure
  ,                                       !- View Factor to Ground
  ,                                       !- Number of Vertices
  3.5527136788005e-015, 0, 0,             !- X,Y,Z Vertex 1 {m}
  3.5527136788005e-015, 4.572, 0,         !- X,Y,Z Vertex 2 {m}
  4.572, 4.572, 0,                        !- X,Y,Z Vertex 3 {m}
  4.572, 0, 0;                            !- X,Y,Z Vertex 4 {m}

OS:Surface,
  {b4354681-5426-4a57-a1e3-096ecbe9f610}, !- Handle
  Surface 14,                             !- Name
  Wall,                                   !- Surface Type
  ,                                       !- Construction Name
  {58dcf22a-76f4-49d9-b7d5-72712d21976e}, !- Space Name
  Outdoors,                               !- Outside Boundary Condition
  ,                                       !- Outside Boundary Condition Object
  SunExposed,                             !- Sun Exposure
  WindExposed,                            !- Wind Exposure
  ,                                       !- View Factor to Ground
  ,                                       !- Number of Vertices
  3.5527136788005e-015, 4.572, 6.33984,   !- X,Y,Z Vertex 1 {m}
  3.5527136788005e-015, 4.572, 0,         !- X,Y,Z Vertex 2 {m}
  3.5527136788005e-015, 0, 0,             !- X,Y,Z Vertex 3 {m}
  3.5527136788005e-015, 0, 6.33984;       !- X,Y,Z Vertex 4 {m}

OS:Surface,
  {a787b8be-6f81-4f54-aef9-485265593181}, !- Handle
  Surface 15,                             !- Name
  Wall,                                   !- Surface Type
  ,                                       !- Construction Name
  {58dcf22a-76f4-49d9-b7d5-72712d21976e}, !- Space Name
  Outdoors,                               !- Outside Boundary Condition
  ,                                       !- Outside Boundary Condition Object
  SunExposed,                             !- Sun Exposure
  WindExposed,                            !- Wind Exposure
  ,                                       !- View Factor to Ground
  ,                                       !- Number of Vertices
  4.572, 4.572, 6.33984,                  !- X,Y,Z Vertex 1 {m}
  4.572, 4.572, 0,                        !- X,Y,Z Vertex 2 {m}
  3.5527136788005e-015, 4.572, 0,         !- X,Y,Z Vertex 3 {m}
  3.5527136788005e-015, 4.572, 6.33984;   !- X,Y,Z Vertex 4 {m}

OS:Surface,
  {38922474-b2c8-4caa-a9e2-4ff48ec2a5b0}, !- Handle
  Surface 16,                             !- Name
  Wall,                                   !- Surface Type
  ,                                       !- Construction Name
  {58dcf22a-76f4-49d9-b7d5-72712d21976e}, !- Space Name
  Surface,                                !- Outside Boundary Condition
  {f16787c7-b1a4-4c04-b13b-c53f8fec795e}, !- Outside Boundary Condition Object
  NoSun,                                  !- Sun Exposure
  NoWind,                                 !- Wind Exposure
  ,                                       !- View Factor to Ground
  ,                                       !- Number of Vertices
  4.572, 0, 6.33984,                      !- X,Y,Z Vertex 1 {m}
  4.572, 0, 0,                            !- X,Y,Z Vertex 2 {m}
  4.572, 4.572, 0,                        !- X,Y,Z Vertex 3 {m}