
OS:Version,
  {2c850395-24e4-4019-b031-b6af4a4b2c4f}, !- Handle
  2.7.0;                                  !- Version Identifier

OS:SpaceType,
  {aec83381-6fb2-4fe4-ae5a-a00509c23415}, !- Handle
  RtL OfficeGeneral,                      !- Name
  ,                                       !- Default Construction Set Name
  ,                                       !- Default Schedule Set Name
  ,                                       !- Group Rendering Name
  ,                                       !- Design Specification Outdoor Air Object Name
  ,                                       !- Standards Template
  RtL,                                    !- Standards Building Type
  OfficeGeneral;                          !- Standards Space Type

OS:SpaceType,
  {0f125f82-d6f5-4ea0-9f63-ceb578145ff6}, !- Handle
  RtL Work,                               !- Name
  ,                                       !- Default Construction Set Name
  ,                                       !- Default Schedule Set Name
  ,                                       !- Group Rendering Name
  ,                                       !- Design Specification Outdoor Air Object Name
  ,                                       !- Standards Template
  RtL,                                    !- Standards Building Type
  Work;                                   !- Standards Space Type

OS:SpaceType,
  {187d67d9-ac3f-4013-afa2-622f565189d2}, !- Handle
  RtL StockRoom,                          !- Name
  ,                                       !- Default Construction Set Name
  ,                                       !- Default Schedule Set Name
  ,                                       !- Group Rendering Name
  ,                                       !- Design Specification Outdoor Air Object Name
  ,                                       !- Standards Template
  RtL,                                    !- Standards Building Type
  StockRoom;                              !- Standards Space Type

OS:SpaceType,
  {c7bacf4d-ac00-4792-96f6-84551e79000f}, !- Handle
  RtL RetailSales,                        !- Name
  ,                                       !- Default Construction Set Name
  ,                                       !- Default Schedule Set Name
  ,                                       !- Group Rendering Name
  ,                                       !- Design Specification Outdoor Air Object Name
  ,                                       !- Standards Template
  RtL,                                    !- Standards Building Type
  RetailSales;                            !- Standards Space Type

OS:SpaceType,
  {d1834376-87f5-4c7e-a3a9-8978d46df9b2}, !- Handle
  RtL Kitchen,                            !- Name
  ,                                       !- Default Construction Set Name
  ,                                       !- Default Schedule Set Name
  ,                                       !- Group Rendering Name
  ,                                       !- Design Specification Outdoor Air Object Name
  ,                                       !- Standards Template
  RtL,                                    !- Standards Building Type
  Kitchen;                                !- Standards Space Type

OS:Building,
  {2458ce05-5430-4085-b25c-a467128b0bd0}, !- Handle
  DEER Pre-1975|RtL,                      !- Name
  ,                                       !- Building Sector Type
  ,                                       !- North Axis {deg}
  ,                                       !- Nominal Floor to Floor Height {m}
  ,                                       !- Space Type Name
  ,                                       !- Default Construction Set Name
  ;                                       !- Default Schedule Set Name

OS:Site,
  {68f7d2b7-8155-4b82-a673-8e10f9530318}, !- Handle
  Site 1,                                 !- Name
  ,                                       !- Latitude {deg}
  ,                                       !- Longitude {deg}
  ,                                       !- Time Zone {hr}
  ,                                       !- Elevation {m}
  ;                                       !- Terrain

OS:BuildingStory,
  {150476a9-62d1-4fb5-bda2-e7b9858c6126}, !- Handle
  Story Ground,                           !- Name
  0,                                      !- Nominal Z Coordinate {m}
  6.2484,                                 !- Nominal Floor to Floor Height {m}
  ,                                       !- Default Construction Set Name
  ,                                       !- Default Schedule Set Name
  ;                                       !- Group Rendering Name

OS:Space,
  {c29e076f-41a0-4b77-94c9-e68e44b96dbb}, !- Handle
  RtL RetailSales A end_a - Story Ground, !- Name
  {c7bacf4d-ac00-4792-96f6-84551e79000f}, !- Space Type Name
  ,                                       !- Default Construction Set Name
  ,                                       !- Default Schedule Set Name
  -0,                                     !- Direction of Relative North {deg}
  -55.0545922836597,                      !- X Origin {m}
  -55.0545922836597,                      !- Y Origin {m}
  0,                                      !- Z Origin {m}
  {150476a9-62d1-4fb5-bda2-e7b9858c6126}, !- Building Story Name
  {98e17c60-824a-4a0d-a360-2d38de23ac34}; !- Thermal Zone Name

OS:Surface,
  {041c2974-acab-47bc-8946-9d28a14f436d}, !- Handle
  Surface 1,                              !- Name
  Floor,                                  !- Surface Type
  ,                                       !- Construction Name
  {c29e076f-41a0-4b77-94c9-e68e44b96dbb}, !- Space Name
  Ground,                                 !- Outside Boundary Condition
  ,                                       !- Outside Boundary Condition Object
  NoSun,                                  !- Sun Exposure
  NoWind,                                 !- Wind Exposure
  ,                                       !- View Factor to Ground
  ,                                       !- Number of Vertices
  -2.1316282072803e-014, -2.1316282072803e-014, 0, !- X,Y,Z Vertex 1 {m}
  -2.1316282072803e-014, 4.57199999999998, 0, !- X,Y,Z Vertex 2 {m}
  4.57199999999998, 4.57199999999998, 0,  !- X,Y,Z Vertex 3 {m}
  4.57199999999998, -2.1316282072803e-014, 0; !- X,Y,Z Vertex 4 {m}

OS:Surface,
  {b2970705-9173-407e-a097-4849d8a9d27f}, !- Handle
  Surface 2,                              !- Name
  Wall,                                   !- Surface Type
  ,                                       !- Construction Name
  {c29e076f-41a0-4b77-94c9-e68e44b96dbb}, !- Space Name
  Outdoors,                               !- Outside Boundary Condition
  ,                                       !- Outside Boundary Condition Object
  SunExposed,                             !- Sun Exposure
  WindExposed,                            !- Wind Exposure
  ,                                       !- View Factor to Ground
  ,                                       !- Number of Vertices
  -2.1316282072803e-014, 4.57199999999998, 6.2484, !- X,Y,Z Vertex 1 {m}
  -2.1316282072803e-014, 4.57199999999998, 0, !- X,Y,Z Vertex 2 {m}
  -2.1316282072803e-014, -2.1316282072803e-014, 0, !- X,Y,Z Vertex 3 {m}
  -2.1316282072803e-014, -2.1316282072803e-014, 6.2484; !- X,Y,Z Vertex 4 {m}

OS:Surface,
  {088afe1d-fbfe-4e31-b050-8eac59d7fe18}, !- Handle
  Surface 3,                              !- Name
  Wall,                                   !- Surface Type
  ,                                       !- Construction Name
  {c29e076f-41a0-4b77-94c9-e68e44b96dbb}, !- Space Name
  Surface,                                !- Outside Boundary Condition
  {124a3beb-18f3-4698-a580-68d5375a1c5f}, !- Outside Boundary Condition Object
  NoSun,                                  !- Sun Exposure
  NoWind,                                 !- Wind Exposure
  ,                                       !- View Factor to Ground
  ,                                       !- Number of Vertices
  4.57199999999998, 4.57199999999998, 6.2484, !- X,Y,Z Vertex 1 {m}
  4.57199999999998, 4.57199999999998, 0,  !- X,Y,Z Vertex 2 {m}
  -2.1316282072803e-014, 4.57199999999998, 0, !- X,Y,Z Vertex 3 {m}
  -2.1316282072803e-014, 4.57199999999998, 6.2484; !- X,Y,Z Vertex 4 {m}

OS:Surface,
  {09918a0c-1615-4fdc-944e-3b836f3040d0}, !- Handle
  Surface 4,                              !- Name
  Wall,                                   !- Surface Type
  ,                                       !- Construction Name
  {c29e076f-41a0-4b77-94c9-e68e44b96dbb}, !- Space Name
  Surface,                                !- Outside Boundary Condition
  {b51ac552-7a5f-41fb-aaa5-a1ce0dfe9992}, !- Outside Boundary Condition Object
  NoSun,                                  !- Sun Exposure
  NoWind,                                 !- Wind Exposure
  ,                                       !- View Factor to Ground
  ,                                       !- Number of Vertices
  4.57199999999998, -2.1316282072803e-014, 6.2484, !- X,Y,Z Vertex 1 {m}
  4.57199999999998, -2.1316282072803e-014, 0, !- X,Y,Z Vertex 2 {m}
  4.57199999999998, 4.57199999999998, 0,  !- X,Y,Z Vertex 3 {m}
  4.57199999999998, 4.57199999999998, 6.2484; !- X,Y,Z Vertex 4 {m}

OS:Surface,
  {6fb7e3e3-554f-432f-8990-080457c5612c}, !- Handle
  Surface 5,                              !- Name
  Wall,                                   !- Surface Type
  ,                                       !- Construction Name
  {c29e076f-41a0-4b77-94c9-e68e44b96dbb}, !- Space Name
  Outdoors,                               !- Outside Boundary Condition
  ,                                       !- Outside Boundary Condition Object
  SunExposed,                             !- Sun Exposure
  WindExposed,                            !- Wind Exposure
  ,                                       !- View Factor to Ground
  ,                                       !- Number of Vertices
  -2.1316282072803e-014, -2.1316282072803e-014, 6.2484, !- X,Y,Z Vertex 1 {m}
  -2.1316282072803e-014, -2.1316282072803e-014, 0, !- X,Y,Z Vertex 2 {m}
  4.57199999999998, -2.1316282072803e-014, 0, !- X,Y,Z Vertex 3 {m}
  4.57199999999998, -2.1316282072803e-014, 6.2484; !- X,Y,Z Vertex 4 {m}

OS:Surface,
  {7efd19cc-fafc-4b70-a0b2-e59f7998cd34}, !- Handle
  Surface 6,                              !- Name
  RoofCeiling,                            !- Surface Type
  ,                                       !- Construction Name
  {c29e076f-41a0-4b77-94c9-e68e44b96dbb}, !- Space Name
  Outdoors,                               !- Outside Boundary Condition
  ,                                       !- Outside Boundary Condition Object
  SunExposed,                             !- Sun Exposure
  WindExposed,                            !- Wind Exposure
  ,                                       !- View Factor to Ground
  ,                                       !- Number of Vertices
  4.57199999999998, -2.1316282072803e-014, 6.2484, !- X,Y,Z Vertex 1 {m}
  4.57199999999998, 4.57199999999998, 6.2484, !- X,Y,Z Vertex 2 {m}
  -2.1316282072803e-014, 4.57199999999998, 6.2484, !- X,Y,Z Vertex 3 {m}
  -2.1316282072803e-014, -2.1316282072803e-014, 6.2484; !- X,Y,Z Vertex 4 {m}

OS:ThermalZone,
  {98e17c60-824a-4a0d-a360-2d38de23ac34}, !- Handle
  Zone RtL RetailSales A end_a - Story Ground, !- Name
  1,                                      !- Multiplier
  ,                                       !- Ceiling Height {m}
  ,                                       !- Volume {m3}
  ,                                       !- Floor Area {m2}
  ,                                       !- Zone Inside Convection Algorithm
  ,                                       !- Zone Outside Convection Algorithm
  ,                                       !- Zone Conditioning Equipment List Name
  {0a2f4bca-fcce-4522-a039-f732d23b1b8d}, !- Zone Air Inlet Port List
  {956af2e0-90f3-42dc-af3b-cc49f32a964b}, !- Zone Air Exhaust Port List
  {cd20d4fb-5526-4379-90d7-9b32ca03febf}, !- Zone Air Node Name
  {2d97a423-4115-4bbe-a68a-f951d4f1a92a}, !- Zone Return Air Port List
  ,                                       !- Primary Daylighting Control Name
  ,                                       !- Fraction of Zone Controlled by Primary Daylighting Control
  ,                                       !- Secondary Daylighting Control Name
  ,                                       !- Fraction of Zone Controlled by Secondary Daylighting Control
  ,                                       !- Illuminance Map Name
  ,                                       !- Group Rendering Name
  ,                                       !- Thermostat Name
  No;                                     !- Use Ideal Air Loads

OS:Node,
  {1c8a6fd6-9ced-4d43-842f-d8ab5632a0f8}, !- Handle
  Node 1,                                 !- Name
  {cd20d4fb-5526-4379-90d7-9b32ca03febf}, !- Inlet Port
  ;                                       !- Outlet Port

OS:Connection,
  {cd20d4fb-5526-4379-90d7-9b32ca03febf}, !- Handle
  {e191f0ff-5497-42d9-81ad-2c11846d6392}, !- Name
  {98e17c60-824a-4a0d-a360-2d38de23ac34}, !- Source Object
  11,                                     !- Outlet Port
  {1c8a6fd6-9ced-4d43-842f-d8ab5632a0f8}, !- Target Object
  2;                                      !- Inlet Port

OS:PortList,
  {0a2f4bca-fcce-4522-a039-f732d23b1b8d}, !- Handle
  {3f5b4ef4-ad18-4def-916d-f722847de974}, !- Name
  {98e17c60-824a-4a0d-a360-2d38de23ac34}; !- HVAC Component

OS:PortList,
  {956af2e0-90f3-42dc-af3b-cc49f32a964b}, !- Handle
  {617eae86-bdbb-4f3d-97fe-5ea3630f838f}, !- Name
  {98e17c60-824a-4a0d-a360-2d38de23ac34}; !- HVAC Component

OS:PortList,
  {2d97a423-4115-4bbe-a68a-f951d4f1a92a}, !- Handle
  {7ed30d52-98d6-4299-a665-9cd6dc39383c}, !- Name
  {98e17c60-824a-4a0d-a360-2d38de23ac34}; !- HVAC Component

OS:Sizing:Zone,
  {ad9f4613-c3f8-461f-a0ed-65610aea5e4e}, !- Handle
  {98e17c60-824a-4a0d-a360-2d38de23ac34}, !- Zone or ZoneList Name
  SupplyAirTemperature,                   !- Zone Cooling Design Supply Air Temperature Input Method
  14,                                     !- Zone Cooling Design Supply Air Temperature {C}
  11.11,                                  !- Zone Cooling Design Supply Air Temperature Difference {deltaC}
  SupplyAirTemperature,                   !- Zone Heating Design Supply Air Temperature Input Method
  40,                                     !- Zone Heating Design Supply Air Temperature {C}
  11.11,                                  !- Zone Heating Design Supply Air Temperature Difference {deltaC}
  0.0085,                                 !- Zone Cooling Design Supply Air Humidity Ratio {kg-H2O/kg-air}
  0.008,                                  !- Zone Heating Design Supply Air Humidity Ratio {kg-H2O/kg-air}
  ,                                       !- Zone Heating Sizing Factor
  ,                                       !- Zone Cooling Sizing Factor
  DesignDay,                              !- Cooling Design Air Flow Method
  ,                                       !- Cooling Design Air Flow Rate {m3/s}
  ,                                       !- Cooling Minimum Air Flow per Zone Floor Area {m3/s-m2}
  ,                                       !- Cooling Minimum Air Flow {m3/s}
  ,                                       !- Cooling Minimum Air Flow Fraction
  DesignDay,                              !- Heating Design Air Flow Method
  ,                                       !- Heating Design Air Flow Rate {m3/s}
  ,                                       !- Heating Maximum Air Flow per Zone Floor Area {m3/s-m2}
  ,                                       !- Heating Maximum Air Flow {m3/s}
  ,                                       !- Heating Maximum Air Flow Fraction
  ,                                       !- Design Zone Air Distribution Effectiveness in Cooling Mode
  ,                                       !- Design Zone Air Distribution Effectiveness in Heating Mode
  No,                                     !- Account for Dedicated Outdoor Air System
  NeutralSupplyAir,                       !- Dedicated Outdoor Air System Control Strategy
  autosize,                               !- Dedicated Outdoor Air Low Setpoint Temperature for Design {C}
  autosize;                               !- Dedicated Outdoor Air High Setpoint Temperature for Design {C}

OS:ZoneHVAC:EquipmentList,
  {24d74789-b521-4e37-b3e0-d2926b744965}, !- Handle
  Zone HVAC Equipment List 1,             !- Name
  {98e17c60-824a-4a0d-a360-2d38de23ac34}; !- Thermal Zone

OS:Space,
  {97b30025-8120-4c39-a479-45fe51c30649}, !- Handle
  RtL RetailSales B end_a - Story Ground, !- Name
  {c7bacf4d-ac00-4792-96f6-84551e79000f}, !- Space Type Name
  ,                                       !- Default Construction Set Name
  ,                                       !- Default Schedule Set Name
  -0,                                     !- Direction of Relative North {deg}
  -55.0545922836597,                      !- X Origin {m}
  -50.4825922836597,                      !- Y Origin {m}
  0,                                      !- Z Origin {m}
  {150476a9-62d1-4fb5-bda2-e7b9858c6126}, !- Building Story Name
  {8160d00b-5448-47e2-8bbb-83c28f3cfa54}; !- Thermal Zone Name

OS:Surface,
  {beba19f5-de4b-4f07-ba9f-93fc9b0919d4}, !- Handle
  Surface 7,                              !- Name
  Floor,                                  !- Surface Type
  ,                                       !- Construction Name
  {97b30025-8120-4c39-a479-45fe51c30649}, !- Space Name
  Ground,                                 !- Outside Boundary Condition
  ,                                       !- Outside Boundary Condition Object
  NoSun,                                  !- Sun Exposure
  NoWind,                                 !- Wind Exposure
  ,                                       !- View Factor to Ground
  ,                                       !- Number of Vertices
  -2.1316282072803e-014, -2.1316282072803e-014, 0, !- X,Y,Z Vertex 1 {m}
  -2.1316282072803e-014, 100.965184567319, 0, !- X,Y,Z Vertex 2 {m}
  4.57199999999998, 100.965184567319, 0,  !- X,Y,Z Vertex 3 {m}
  4.57199999999998, -2.1316282072803e-014, 0; !- X,Y,Z Vertex 4 {m}

OS:Surface,
  {c6de281f-332a-4748-b7ec-17ec9b458c05}, !- Handle
  Surface 8,                              !- Name
  Wall,                                   !- Surface Type
  ,                                       !- Construction Name
  {97b30025-8120-4c39-a479-45fe51c30649}, !- Space Name
  Outdoors,                               !- Outside Boundary Condition
  ,                                       !- Outside Boundary Condition Object
  SunExposed,                             !- Sun Exposure
  WindExposed,                            !- Wind Exposure
  ,                                       !- View Factor to Ground
  ,                                       !- Number of Vertices
  -2.1316282072803e-014, 100.965184567319, 6.2484, !- X,Y,Z Vertex 1 {m}
  -2.1316282072803e-014, 100.965184567319, 0, !- X,Y,Z Vertex 2 {m}
  -2.1316282072803e-014, -2.1316282072803e-014, 0, !- X,Y,Z Vertex 3 {m}
  -2.1316282072803e-014, -2.1316282072803e-014, 6.2484; !- X,Y,Z Vertex 4 {m}

OS:Surface,
  {bd79a4cd-5ef3-4e3d-afb4-a3719eca22e5}, !- Handle
  Surface 9,                              !- Name
  Wall,                                   !- Surface Type
  ,                                       !- Construction Name
  {97b30025-8120-4c39-a479-45fe51c30649}, !- Space Name
  Surface,                                !- Outside Boundary Condition
  {345d9da5-7bc5-4ca1-8f27-ec2988c03df6}, !- Outside Boundary Condition Object
  NoSun,                                  !- Sun Exposure
  NoWind,                                 !- Wind Exposure
  ,                                       !- View Factor to Ground
  ,                                       !- Number of Vertices
  4.57199999999998, 100.965184567319, 6.2484, !- X,Y,Z Vertex 1 {m}
  4.57199999999998, 100.965184567319, 0,  !- X,Y,Z Vertex 2 {m}
  -2.1316282072803e-014, 100.965184567319, 0, !- X,Y,Z Vertex 3 {m}
  -2.1316282072803e-014, 100.965184567319, 6.2484; !- X,Y,Z Vertex 4 {m}

OS:Surface,
  {429d947a-89e9-4771-b54a-f0695e7101a5}, !- Handle
  Surface 10,                             !- Name
  Wall,                                   !- Surface Type
  ,                                       !- Construction Name
  {97b30025-8120-4c39-a479-45fe51c30649}, !- Space Name
  Surface,                                !- Outside Boundary Condition
  {687ba113-d1b2-4def-b061-920367a12a5d}, !- Outside Boundary Condition Object
  NoSun,                                  !- Sun Exposure
  NoWind,                                 !- Wind Exposure
  ,                                       !- View Factor to Ground
  ,                                       !- Number of Vertices
  4.57199999999998, -2.1316282072803e-014, 6.2484, !- X,Y,Z Vertex 1 {m}
  4.57199999999998, -2.1316282072803e-014, 0, !- X,Y,Z Vertex 2 {m}
  4.57199999999998, 100.965184567319, 0,  !- X,Y,Z Vertex 3 {m}
  4.57199999999998, 100.965184567319, 6.2484; !- X,Y,Z Vertex 4 {m}

OS:Surface,
  {124a3beb-18f3-4698-a580-68d5375a1c5f}, !- Handle
  Surface 11,                             !- Name
  Wall,                                   !- Surface Type
  ,                                       !- Construction Name
  {97b30025-8120-4c39-a479-45fe51c30649}, !- Space Name
  Surface,                                !- Outside Boundary Condition
  {088afe1d-fbfe-4e31-b050-8eac59d7fe18}, !- Outside Boundary Condition Object
  NoSun,                                  !- Sun Exposure
  NoWind,                                 !- Wind Exposure
  ,                                       !- View Factor to Ground
  ,                                       !- Number of Vertices
  -2.1316282072803e-014, -2.1316282072803e-014, 6.2484, !- X,Y,Z Vertex 1 {m}
  -2.1316282072803e-014, -2.1316282072803e-014, 0, !- X,Y,Z Vertex 2 {m}
  4.57199999999998, -2.1316282072803e-014, 0, !- X,Y,Z Vertex 3 {m}
  4.57199999999998, -2.1316282072803e-014, 6.2484; !- X,Y,Z Vertex 4 {m}

OS:Surface,
  {0bea41ce-6ad4-4c17-9ccc-c6de2ddd715f}, !- Handle
  Surface 12,                             !- Name
  RoofCeiling,                            !- Surface Type
  ,                                       !- Construction Name
  {97b30025-8120-4c39-a479-45fe51c30649}, !- Space Name
  Outdoors,                               !- Outside Boundary Condition
  ,                                       !- Outside Boundary Condition Object
  SunExposed,                             !- Sun Exposure
  WindExposed,                            !- Wind Exposure
  ,                                       !- View Factor to Ground
  ,                                       !- Number of Vertices
  4.57199999999998, -2.1316282072803e-014, 6.2484, !- X,Y,Z Vertex 1 {m}
  4.57199999999998, 100.965184567319, 6.2484, !- X,Y,Z Vertex 2 {m}
  -2.1316282072803e-014, 100.965184567319, 6.2484, !- X,Y,Z Vertex 3 {m}
  -2.1316282072803e-014, -2.1316282072803e-014, 6.2484; !- X,Y,Z Vertex 4 {m}

OS:ThermalZone,
  {8160d00b-5448-47e2-8bbb-83c28f3cfa54}, !- Handle
  Zone RtL RetailSales B end_a - Story Ground, !- Name
  1,                                      !- Multiplier
  ,                                       !- Ceiling Height {m}
  ,                                       !- Volume {m3}
  ,                                       !- Floor Area {m2}
  ,                                       !- Zone Inside Convection Algorithm
  ,                                       !- Zone Outside Convection Algorithm
  ,                                       !- Zone Conditioning Equipment List Name
  {6475e6d9-624c-46a4-ad5d-d39f8cb4e30b}, !- Zone Air Inlet Port List
  {01796a92-a6fe-4a24-adaa-b96aade985a6}, !- Zone Air Exhaust Port List
  {82c1fda3-1c52-486a-b965-0513bb468222}, !- Zone Air Node Name
  {e0d15d8b-cca9-4880-a947-f972ca55ec4d}, !- Zone Return Air Port List
  ,                                       !- Primary Daylighting Control Name
  ,                                       !- Fraction of Zone Controlled by Primary Daylighting Control
  ,                                       !- Secondary Daylighting Control Name
  ,                                       !- Fraction of Zone Controlled by Secondary Daylighting Control
  ,                                       !- Illuminance Map Name
  ,                                       !- Group Rendering Name
  ,                                       !- Thermostat Name
  No;                                     !- Use Ideal Air Loads

OS:Node,
  {3eadae14-c2d2-4356-9bee-363d756f077e}, !- Handle
  Node 2,                                 !- Name
  {82c1fda3-1c52-486a-b965-0513bb468222}, !- Inlet Port
  ;                                       !- Outlet Port

OS:Connection,
  {82c1fda3-1c52-486a-b965-0513bb468222}, !- Handle
  {84b28e53-3482-448b-8978-90d90d8888bc}, !- Name
  {8160d00b-5448-47e2-8bbb-83c28f3cfa54}, !- Source Object
  11,                                     !- Outlet Port
  {3eadae14-c2d2-4356-9bee-363d756f077e}, !- Target Object
  2;                                      !- Inlet Port

OS:PortList,
  {6475e6d9-624c-46a4-ad5d-d39f8cb4e30b}, !- Handle
  {6100d426-5dbd-4039-bda2-07d8e2c603e3}, !- Name
  {8160d00b-5448-47e2-8bbb-83c28f3cfa54}; !- HVAC Component

OS:PortList,
  {01796a92-a6fe-4a24-adaa-b96aade985a6}, !- Handle
  {a174e223-47f9-41c4-8ba3-671927e0f646}, !- Name
  {8160d00b-5448-47e2-8bbb-83c28f3cfa54}; !- HVAC Component

OS:PortList,
  {e0d15d8b-cca9-4880-a947-f972ca55ec4d}, !- Handle
  {8521948a-673a-45b4-b2bb-6782d2109420}, !- Name
  {8160d00b-5448-47e2-8bbb-83c28f3cfa54}; !- HVAC Component

OS:Sizing:Zone,
  {5c065848-0184-4142-8b81-e8f82660ddb0}, !- Handle
  {8160d00b-5448-47e2-8bbb-83c28f3cfa54}, !- Zone or ZoneList Name
  SupplyAirTemperature,                   !- Zone Cooling Design Supply Air Temperature Input Method
  14,                                     !- Zone Cooling Design Supply Air Temperature {C}
  11.11,                                  !- Zone Cooling Design Supply Air Temperature Difference {deltaC}
  SupplyAirTemperature,                   !- Zone Heating Design Supply Air Temperature Input Method
  40,                                     !- Zone Heating Design Supply Air Temperature {C}
  11.11,                                  !- Zone Heating Design Supply Air Temperature Difference {deltaC}
  0.0085,                                 !- Zone Cooling Design Supply Air Humidity Ratio {kg-H2O/kg-air}
  0.008,                                  !- Zone Heating Design Supply Air Humidity Ratio {kg-H2O/kg-air}
  ,                                       !- Zone Heating Sizing Factor
  ,                                       !- Zone Cooling Sizing Factor
  DesignDay,                              !- Cooling Design Air Flow Method
  ,                                       !- Cooling Design Air Flow Rate {m3/s}
  ,                                       !- Cooling Minimum Air Flow per Zone Floor Area {m3/s-m2}
  ,                                       !- Cooling Minimum Air Flow {m3/s}
  ,                                       !- Cooling Minimum Air Flow Fraction
  DesignDay,                              !- Heating Design Air Flow Method
  ,                                       !- Heating Design Air Flow Rate {m3/s}
  ,                                       !- Heating Maximum Air Flow per Zone Floor Area {m3/s-m2}
  ,                                       !- Heating Maximum Air Flow {m3/s}
  ,                                       !- Heating Maximum Air Flow Fraction
  ,                                       !- Design Zone Air Distribution Effectiveness in Cooling Mode
  ,                                       !- Design Zone Air Distribution Effectiveness in Heating Mode
  No,                                     !- Account for Dedicated Outdoor Air System
  NeutralSupplyAir,                       !- Dedicated Outdoor Air System Control Strategy
  autosize,                               !- Dedicated Outdoor Air Low Setpoint Temperature for Design {C}
  autosize;                               !- Dedicated Outdoor Air High Setpoint Temperature for Design {C}

OS:ZoneHVAC:EquipmentList,
  {fa39c743-f238-415f-903f-e4da14837e8c}, !- Handle
  Zone HVAC Equipment List 2,             !- Name
  {8160d00b-5448-47e2-8bbb-83c28f3cfa54}; !- Thermal Zone

OS:Space,
  {ea6280b8-7bd7-43f1-bfc2-efbce077ee81}, !- Handle
  RtL RetailSales C end_a - Story Ground, !- Name
  {c7bacf4d-ac00-4792-96f6-84551e79000f}, !- Space Type Name
  ,                                       !- Default Construction Set Name
  ,                                       !- Default Schedule Set Name
  -0,                                     !- Direction of Relative North {deg}
  -55.0545922836597,                      !- X Origin {m}
  50.4825922836597,                       !- Y Origin {m}
  0,                                      !- Z Origin {m}
  {150476a9-62d1-4fb5-bda2-e7b9858c6126}, !- Building Story Name
  {02722539-8811-45ef-b65a-235ec13d5350}; !- Thermal Zone Name

OS:Surface,
  {1cf84c8a-1513-421c-a518-1d8fa5cf39df}, !- Handle
  Surface 13,                             !- Name
  Floor,                                  !- Surface Type
  ,                                       !- Construction Name
  {ea6280b8-7bd7-43f1-bfc2-efbce077ee81}, !- Space Name
  Ground,                                 !- Outside Boundary Condition
  ,                                       !- Outside Boundary Condition Object
  NoSun,                                  !- Sun Exposure
  NoWind,                                 !- Wind Exposure
  ,                                       !- View Factor to Ground
  ,                                       !- Number of Vertices
  -2.1316282072803e-014, 2.1316282072803e-014, 0, !- X,Y,Z Vertex 1 {m}
  -2.1316282072803e-014, 4.57200000000002, 0, !- X,Y,Z Vertex 2 {m}
  4.57199999999998, 4.57200000000002, 0,  !- X,Y,Z Vertex 3 {m}