
OS:Version,
  {7e763c72-9ff6-4196-a513-0412a12179a4}, !- Handle
  2.7.0;                                  !- Version Identifier

OS:SpaceType,
  {ac24a14e-278f-4b05-b4b2-7b9c1864a6c7}, !- Handle
  RtS RetailSales,                        !- Name
  ,                                       !- Default Construction Set Name
  ,                                       !- Default Schedule Set Name
  ,                                       !- Group Rendering Name
  ,                                       !- Design Specification Outdoor Air Object Name
  ,                                       !- Standards Template
  RtS,                                    !- Standards Building Type
  RetailSales;                            !- Standards Space Type

OS:SpaceType,
  {f3dfc508-fc57-44ac-929f-9153e053a7d0}, !- Handle
  RtS StockRoom,                          !- Name
  ,                                       !- Default Construction Set Name
  ,                                       !- Default Schedule Set Name
  ,                                       !- Group Rendering Name
  ,                                       !- Design Specification Outdoor Air Object Name
  ,                                       !- Standards Template
  RtS,                                    !- Standards Building Type
  StockRoom;                              !- Standards Space Type

OS:Building,
  {a5806cc8-8cf5-4594-b17b-b83752af9cb1}, !- Handle
  DEER Pre-1975|RtS,                      !- Name
  ,                                       !- Building Sector Type
  ,                                       !- North Axis {deg}
  ,                                       !- Nominal Floor to Floor Height {m}
  ,                                       !- Space Type Name
  ,                                       !- Default Construction Set Name
  ;                                       !- Default Schedule Set Name

OS:Site,
  {01c34fe0-e297-4952-9641-e8464b43725a}, !- Handle
  Site 1,                                 !- Name
  ,                                       !- Latitude {deg}
  ,                                       !- Longitude {deg}
  ,                                       !- Time Zone {hr}
  ,                                       !- Elevation {m}
  ;                                       !- Terrain

OS:BuildingStory,
  {e12d2047-fbcd-4128-97ae-0e67483f42a9}, !- Handle
  Story Ground,                           !- Name
  0,                                      !- Nominal Z Coordinate {m}
  3.6576,                                 !- Nominal Floor to Floor Height {m}
  ,                                       !- Default Construction Set Name
  ,                                       !- Default Schedule Set Name
  ;                                       !- Group Rendering Name

OS:Space,
  {6012cbcc-08d0-47ed-9c61-b9e843815d11}, !- Handle
  RtS RetailSales A end_a - Story Ground, !- Name
  {ac24a14e-278f-4b05-b4b2-7b9c1864a6c7}, !- Space Type Name
  ,                                       !- Default Construction Set Name
  ,                                       !- Default Schedule Set Name
  -0,                                     !- Direction of Relative North {deg}
  -13.6319223061166,                      !- X Origin {m}
  -13.6319223061166,                      !- Y Origin {m}
  0,                                      !- Z Origin {m}
  {e12d2047-fbcd-4128-97ae-0e67483f42a9}, !- Building Story Name
  {81bac33f-1ec9-49da-82de-20dd81069155}; !- Thermal Zone Name

OS:Surface,
  {019e098b-a3b6-4a93-8d6c-4c6f156c04be}, !- Handle
  Surface 1,                              !- Name
  Floor,                                  !- Surface Type
  ,                                       !- Construction Name
  {6012cbcc-08d0-47ed-9c61-b9e843815d11}, !- Space Name
  Ground,                                 !- Outside Boundary Condition
  ,                                       !- Outside Boundary Condition Object
  NoSun,                                  !- Sun Exposure
  NoWind,                                 !- Wind Exposure
  ,                                       !- View Factor to Ground
  ,                                       !- Number of Vertices
  2.66453525910038e-014, 2.48689957516035e-014, 0, !- X,Y,Z Vertex 1 {m}
  2.66453525910038e-014, 4.572, 0,        !- X,Y,Z Vertex 2 {m}
  4.572, 4.572, 0,                        !- X,Y,Z Vertex 3 {m}
  4.572, 2.48689957516035e-014, 0;        !- X,Y,Z Vertex 4 {m}

OS:Surface,
  {b727eab4-e0ff-4664-81b1-80329abb523a}, !- Handle
  Surface 2,                              !- Name
  Wall,                                   !- Surface Type
  ,                                       !- Construction Name
  {6012cbcc-08d0-47ed-9c61-b9e843815d11}, !- Space Name
  Outdoors,                               !- Outside Boundary Condition
  ,                                       !- Outside Boundary Condition Object
  SunExposed,                             !- Sun Exposure
  WindExposed,                            !- Wind Exposure
  ,                                       !- View Factor to Ground
  ,                                       !- Number of Vertices
  2.66453525910038e-014, 4.572, 3.6576,   !- X,Y,Z Vertex 1 {m}
  2.66453525910038e-014, 4.572, 0,        !- X,Y,Z Vertex 2 {m}
  2.66453525910038e-014, 2.48689957516035e-014, 0, !- X,Y,Z Vertex 3 {m}
  2.66453525910038e-014, 2.48689957516035e-014, 3.6576; !- X,Y,Z Vertex 4 {m}

OS:Surface,
  {9c1ba4c1-e565-4f50-8fb0-26c0da2ac40a}, !- Handle
  Surface 3,                              !- Name
  Wall,                                   !- Surface Type
  ,                                       !- Construction Name
  {6012cbcc-08d0-47ed-9c61-b9e843815d11}, !- Space Name
  Surface,                                !- Outside Boundary Condition
  {1cc2bc4f-6956-4650-a8b3-6781f64a5c0e}, !- Outside Boundary Condition Object
  NoSun,                                  !- Sun Exposure
  NoWind,                                 !- Wind Exposure
  ,                                       !- View Factor to Ground
  ,                                       !- Number of Vertices
  4.572, 4.572, 3.6576,                   !- X,Y,Z Vertex 1 {m}
  4.572, 4.572, 0,                        !- X,Y,Z Vertex 2 {m}
  2.66453525910038e-014, 4.572, 0,        !- X,Y,Z Vertex 3 {m}
  2.66453525910038e-014, 4.572, 3.6576;   !- X,Y,Z Vertex 4 {m}

OS:Surface,
  {ce7916c8-a96e-42ef-9125-a583c55d14e7}, !- Handle
  Surface 4,                              !- Name
  Wall,                                   !- Surface Type
  ,                                       !- Construction Name
  {6012cbcc-08d0-47ed-9c61-b9e843815d11}, !- Space Name
  Surface,                                !- Outside Boundary Condition
  {811532ea-47f3-4528-88b9-cbcd0f060f2f}, !- Outside Boundary Condition Object
  NoSun,                                  !- Sun Exposure
  NoWind,                                 !- Wind Exposure
  ,                                       !- View Factor to Ground
  ,                                       !- Number of Vertices
  4.572, 2.48689957516035e-014, 3.6576,   !- X,Y,Z Vertex 1 {m}
  4.572, 2.48689957516035e-014, 0,        !- X,Y,Z Vertex 2 {m}
  4.572, 4.572, 0,                        !- X,Y,Z Vertex 3 {m}
  4.572, 4.572, 3.6576;                   !- X,Y,Z Vertex 4 {m}

OS:Surface,
  {ccf57459-2ef7-4958-9080-619ba42d19e7}, !- Handle
  Surface 5,                              !- Name
  Wall,                                   !- Surface Type
  ,                                       !- Construction Name
  {6012cbcc-08d0-47ed-9c61-b9e843815d11}, !- Space Name
  Outdoors,                               !- Outside Boundary Condition
  ,                                       !- Outside Boundary Condition Object
  SunExposed,                             !- Sun Exposure
  WindExposed,                            !- Wind Exposure
  ,                                       !- View Factor to Ground
  ,                                       !- Number of Vertices
  2.66453525910038e-014, 2.48689957516035e-014, 3.6576, !- X,Y,Z Vertex 1 {m}
  2.66453525910038e-014, 2.48689957516035e-014, 0, !- X,Y,Z Vertex 2 {m}
  4.572, 2.48689957516035e-014, 0,        !- X,Y,Z Vertex 3 {m}
  4.572, 2.48689957516035e-014, 3.6576;   !- X,Y,Z Vertex 4 {m}

OS:Surface,
  {dded9e80-6d1a-4db5-a597-98ac93474bd4}, !- Handle
  Surface 6,                              !- Name
  RoofCeiling,                            !- Surface Type
  ,                                       !- Construction Name
  {6012cbcc-08d0-47ed-9c61-b9e843815d11}, !- Space Name
  Outdoors,                               !- Outside Boundary Condition
  ,                                       !- Outside Boundary Condition Object
  SunExposed,                             !- Sun Exposure
  WindExposed,                            !- Wind Exposure
  ,                                       !- View Factor to Ground
  ,                                       !- Number of Vertices
  4.572, 2.48689957516035e-014, 3.6576,   !- X,Y,Z Vertex 1 {m}
  4.572, 4.572, 3.6576,                   !- X,Y,Z Vertex 2 {m}
  2.66453525910038e-014, 4.572, 3.6576,   !- X,Y,Z Vertex 3 {m}
  2.66453525910038e-014, 2.48689957516035e-014, 3.6576; !- X,Y,Z Vertex 4 {m}

OS:ThermalZone,
  {81bac33f-1ec9-49da-82de-20dd81069155}, !- Handle
  Zone RtS RetailSales A end_a - Story Ground, !- Name
  1,                                      !- Multiplier
  ,                                       !- Ceiling Height {m}
  ,                                       !- Volume {m3}
  ,                                       !- Floor Area {m2}
  ,                                       !- Zone Inside Convection Algorithm
  ,                                       !- Zone Outside Convection Algorithm
  ,                                       !- Zone Conditioning Equipment List Name
  {f11908d9-eac9-47ad-96c8-d9ef27d964a7}, !- Zone Air Inlet Port List
  {89a2e685-5197-4751-9b78-2dc0be58e409}, !- Zone Air Exhaust Port List
  {2b938fbd-56f1-471f-8647-05d31856eaf1}, !- Zone Air Node Name
  {83880189-7f8f-43bb-baaf-9e3dfa782416}, !- Zone Return Air Port List
  ,                                       !- Primary Daylighting Control Name
  ,                                       !- Fraction of Zone Controlled by Primary Daylighting Control
  ,                                       !- Secondary Daylighting Control Name
  ,                                       !- Fraction of Zone Controlled by Secondary Daylighting Control
  ,                                       !- Illuminance Map Name
  ,                                       !- Group Rendering Name
  ,                                       !- Thermostat Name
  No;                                     !- Use Ideal Air Loads

OS:Node,
  {2fba9a84-b057-4c44-818b-0f32f7cabc41}, !- Handle
  Node 1,                                 !- Name
  {2b938fbd-56f1-471f-8647-05d31856eaf1}, !- Inlet Port
  ;                                       !- Outlet Port

OS:Connection,
  {2b938fbd-56f1-471f-8647-05d31856eaf1}, !- Handle
  {d5d1569d-3814-4b43-bdfd-b74643384020}, !- Name
  {81bac33f-1ec9-49da-82de-20dd81069155}, !- Source Object
  11,                                     !- Outlet Port
  {2fba9a84-b057-4c44-818b-0f32f7cabc41}, !- Target Object
  2;                                      !- Inlet Port

OS:PortList,
  {f11908d9-eac9-47ad-96c8-d9ef27d964a7}, !- Handle
  {ec711e4a-b610-46ea-8993-e4279a7e2fe9}, !- Name
  {81bac33f-1ec9-49da-82de-20dd81069155}; !- HVAC Component

OS:PortList,
  {89a2e685-5197-4751-9b78-2dc0be58e409}, !- Handle
  {55feb601-d5d9-498a-a661-52417d8ed95e}, !- Name
  {81bac33f-1ec9-49da-82de-20dd81069155}; !- HVAC Component

OS:PortList,
  {83880189-7f8f-43bb-baaf-9e3dfa782416}, !- Handle
  {9f30a16f-43cf-4a9e-92d3-295688eef692}, !- Name
  {81bac33f-1ec9-49da-82de-20dd81069155}; !- HVAC Component

OS:Sizing:Zone,
  {91aebd04-ca4d-487a-8ef0-6ff37de0d5ae}, !- Handle
  {81bac33f-1ec9-49da-82de-20dd81069155}, !- Zone or ZoneList Name
  SupplyAirTemperature,                   !- Zone Cooling Design Supply Air Temperature Input Method
  14,                                     !- Zone Cooling Design Supply Air Temperature {C}
  11.11,                                  !- Zone Cooling Design Supply Air Temperature Difference {deltaC}
  SupplyAirTemperature,                   !- Zone Heating Design Supply Air Temperature Input Method
  40,                                     !- Zone Heating Design Supply Air Temperature {C}
  11.11,                                  !- Zone Heating Design Supply Air Temperature Difference {deltaC}
  0.0085,                                 !- Zone Cooling Design Supply Air Humidity Ratio {kg-H2O/kg-air}
  0.008,                                  !- Zone Heating Design Supply Air Humidity Ratio {kg-H2O/kg-air}
  ,                                       !- Zone Heating Sizing Factor
  ,                                       !- Zone Cooling Sizing Factor
  DesignDay,                              !- Cooling Design Air Flow Method
  ,                                       !- Cooling Design Air Flow Rate {m3/s}
  ,                                       !- Cooling Minimum Air Flow per Zone Floor Area {m3/s-m2}
  ,                                       !- Cooling Minimum Air Flow {m3/s}
  ,                                       !- Cooling Minimum Air Flow Fraction
  DesignDay,                              !- Heating Design Air Flow Method
  ,                                       !- Heating Design Air Flow Rate {m3/s}
  ,                                       !- Heating Maximum Air Flow per Zone Floor Area {m3/s-m2}
  ,                                       !- Heating Maximum Air Flow {m3/s}
  ,                                       !- Heating Maximum Air Flow Fraction
  ,                                       !- Design Zone Air Distribution Effectiveness in Cooling Mode
  ,                                       !- Design Zone Air Distribution Effectiveness in Heating Mode
  No,                                     !- Account for Dedicated Outdoor Air System
  NeutralSupplyAir,                       !- Dedicated Outdoor Air System Control Strategy
  autosize,                               !- Dedicated Outdoor Air Low Setpoint Temperature for Design {C}
  autosize;                               !- Dedicated Outdoor Air High Setpoint Temperature for Design {C}

OS:ZoneHVAC:EquipmentList,
  {5c6da8d4-4bc8-42c9-9bdb-3c27c9a69eac}, !- Handle
  Zone HVAC Equipment List 1,             !- Name
  {81bac33f-1ec9-49da-82de-20dd81069155}; !- Thermal Zone

OS:Space,
  {afbc7683-e171-40d6-996e-9c777c0304fc}, !- Handle
  RtS RetailSales B end_a - Story Ground, !- Name
  {ac24a14e-278f-4b05-b4b2-7b9c1864a6c7}, !- Space Type Name
  ,                                       !- Default Construction Set Name
  ,                                       !- Default Schedule Set Name
  -0,                                     !- Direction of Relative North {deg}
  -13.6319223061166,                      !- X Origin {m}
  -9.05992230611663,                      !- Y Origin {m}
  0,                                      !- Z Origin {m}
  {e12d2047-fbcd-4128-97ae-0e67483f42a9}, !- Building Story Name
  {ce334738-7eca-4f91-8a0a-5d0840dd7cb5}; !- Thermal Zone Name

OS:Surface,
  {a15752c8-b9fb-46f4-94fe-29a1a5f5b4a5}, !- Handle
  Surface 7,                              !- Name
  Floor,                                  !- Surface Type
  ,                                       !- Construction Name
  {afbc7683-e171-40d6-996e-9c777c0304fc}, !- Space Name
  Ground,                                 !- Outside Boundary Condition
  ,                                       !- Outside Boundary Condition Object
  NoSun,                                  !- Sun Exposure
  NoWind,                                 !- Wind Exposure
  ,                                       !- View Factor to Ground
  ,                                       !- Number of Vertices
  2.66453525910038e-014, -3.5527136788005e-015, 0, !- X,Y,Z Vertex 1 {m}
  2.66453525910038e-014, 18.1198446122333, 0, !- X,Y,Z Vertex 2 {m}
  4.572, 18.1198446122333, 0,             !- X,Y,Z Vertex 3 {m}
  4.572, -3.5527136788005e-015, 0;        !- X,Y,Z Vertex 4 {m}

OS:Surface,
  {8cb323d2-fc64-4812-8036-1cef47e93620}, !- Handle
  Surface 8,                              !- Name
  Wall,                                   !- Surface Type
  ,                                       !- Construction Name
  {afbc7683-e171-40d6-996e-9c777c0304fc}, !- Space Name
  Outdoors,                               !- Outside Boundary Condition
  ,                                       !- Outside Boundary Condition Object
  SunExposed,                             !- Sun Exposure
  WindExposed,                            !- Wind Exposure
  ,                                       !- View Factor to Ground
  ,                                       !- Number of Vertices
  2.66453525910038e-014, 18.1198446122333, 3.6576, !- X,Y,Z Vertex 1 {m}
  2.66453525910038e-014, 18.1198446122333, 0, !- X,Y,Z Vertex 2 {m}
  2.66453525910038e-014, -3.5527136788005e-015, 0, !- X,Y,Z Vertex 3 {m}
  2.66453525910038e-014, -3.5527136788005e-015, 3.6576; !- X,Y,Z Vertex 4 {m}

OS:Surface,
  {251f0ed8-ee41-4c92-b261-1fc97f3b1553}, !- Handle
  Surface 9,                              !- Name
  Wall,                                   !- Surface Type
  ,                                       !- Construction Name
  {afbc7683-e171-40d6-996e-9c777c0304fc}, !- Space Name
  Surface,                                !- Outside Boundary Condition
  {bddbff23-c04a-4a9e-a44a-f5c9be015772}, !- Outside Boundary Condition Object
  NoSun,                                  !- Sun Exposure
  NoWind,                                 !- Wind Exposure
  ,                                       !- View Factor to Ground
  ,                                       !- Number of Vertices
  4.572, 18.1198446122333, 3.6576,        !- X,Y,Z Vertex 1 {m}
  4.572, 18.1198446122333, 0,             !- X,Y,Z Vertex 2 {m}
  2.66453525910038e-014, 18.1198446122333, 0, !- X,Y,Z Vertex 3 {m}
  2.66453525910038e-014, 18.1198446122333, 3.6576; !- X,Y,Z Vertex 4 {m}

OS:Surface,
  {0ae4c2e3-4b79-4b43-84e6-348301f9cce1}, !- Handle
  Surface 10,                             !- Name
  Wall,                                   !- Surface Type
  ,                                       !- Construction Name
  {afbc7683-e171-40d6-996e-9c777c0304fc}, !- Space Name
  Surface,                                !- Outside Boundary Condition
  {7c0b5760-34f8-4c17-9358-dda2fb3fc24c}, !- Outside Boundary Condition Object
  NoSun,                                  !- Sun Exposure
  NoWind,                                 !- Wind Exposure
  ,                                       !- View Factor to Ground
  ,                                       !- Number of Vertices
  4.572, -3.5527136788005e-015, 3.6576,   !- X,Y,Z Vertex 1 {m}
  4.572, -3.5527136788005e-015, 0,        !- X,Y,Z Vertex 2 {m}
  4.572, 18.1198446122333, 0,             !- X,Y,Z Vertex 3 {m}
  4.572, 18.1198446122333, 3.6576;        !- X,Y,Z Vertex 4 {m}

OS:Surface,
  {1cc2bc4f-6956-4650-a8b3-6781f64a5c0e}, !- Handle
  Surface 11,                             !- Name
  Wall,                                   !- Surface Type
  ,                                       !- Construction Name
  {afbc7683-e171-40d6-996e-9c777c0304fc}, !- Space Name
  Surface,                                !- Outside Boundary Condition
  {9c1ba4c1-e565-4f50-8fb0-26c0da2ac40a}, !- Outside Boundary Condition Object
  NoSun,                                  !- Sun Exposure
  NoWind,                                 !- Wind Exposure
  ,                                       !- View Factor to Ground
  ,                                       !- Number of Vertices
  2.66453525910038e-014, -3.5527136788005e-015, 3.6576, !- X,Y,Z Vertex 1 {m}
  2.66453525910038e-014, -3.5527136788005e-015, 0, !- X,Y,Z Vertex 2 {m}
  4.572, -3.5527136788005e-015, 0,        !- X,Y,Z Vertex 3 {m}
  4.572, -3.5527136788005e-015, 3.6576;   !- X,Y,Z Vertex 4 {m}

OS:Surface,
  {cd59e45a-f423-488d-96ae-b82e1cfe82f7}, !- Handle
  Surface 12,                             !- Name
  RoofCeiling,                            !- Surface Type
  ,                                       !- Construction Name
  {afbc7683-e171-40d6-996e-9c777c0304fc}, !- Space Name
  Outdoors,                               !- Outside Boundary Condition
  ,                                       !- Outside Boundary Condition Object
  SunExposed,                             !- Sun Exposure
  WindExposed,                            !- Wind Exposure
  ,                                       !- View Factor to Ground
  ,                                       !- Number of Vertices
  4.572, -3.5527136788005e-015, 3.6576,   !- X,Y,Z Vertex 1 {m}
  4.572, 18.1198446122333, 3.6576,        !- X,Y,Z Vertex 2 {m}
  2.66453525910038e-014, 18.1198446122333, 3.6576, !- X,Y,Z Vertex 3 {m}
  2.66453525910038e-014, -3.5527136788005e-015, 3.6576; !- X,Y,Z Vertex 4 {m}

OS:ThermalZone,
  {ce334738-7eca-4f91-8a0a-5d0840dd7cb5}, !- Handle
  Zone RtS RetailSales B end_a - Story Ground, !- Name
  1,                                      !- Multiplier
  ,                                       !- Ceiling Height {m}
  ,                                       !- Volume {m3}
  ,                                       !- Floor Area {m2}
  ,                                       !- Zone Inside Convection Algorithm
  ,                                       !- Zone Outside Convection Algorithm
  ,                                       !- Zone Conditioning Equipment List Name
  {ecf33858-8620-4652-b297-b8dc8dfcad15}, !- Zone Air Inlet Port List
  {d0610626-d5de-4048-8e3e-4b5998a0dcec}, !- Zone Air Exhaust Port List
  {f2b47e38-decd-4fca-98b2-241966f68883}, !- Zone Air Node Name
  {e7c03d4e-81d6-493d-8635-73f202ce720f}, !- Zone Return Air Port List
  ,                                       !- Primary Daylighting Control Name
  ,                                       !- Fraction of Zone Controlled by Primary Daylighting Control
  ,                                       !- Secondary Daylighting Control Name
  ,                                       !- Fraction of Zone Controlled by Secondary Daylighting Control
  ,                                       !- Illuminance Map Name
  ,                                       !- Group Rendering Name
  ,                                       !- Thermostat Name
  No;                                     !- Use Ideal Air Loads

OS:Node,
  {7d976d5f-698b-4d4a-94d4-bea4003c4499}, !- Handle
  Node 2,                                 !- Name
  {f2b47e38-decd-4fca-98b2-241966f68883}, !- Inlet Port
  ;                                       !- Outlet Port

OS:Connection,
  {f2b47e38-decd-4fca-98b2-241966f68883}, !- Handle
  {7b2872b6-b4e3-4ef6-8086-6417417bddc5}, !- Name
  {ce334738-7eca-4f91-8a0a-5d0840dd7cb5}, !- Source Object
  11,                                     !- Outlet Port
  {7d976d5f-698b-4d4a-94d4-bea4003c4499}, !- Target Object
  2;                                      !- Inlet Port

OS:PortList,
  {ecf33858-8620-4652-b297-b8dc8dfcad15}, !- Handle
  {6f243fa9-1d9b-420d-b392-be78c2a8b879}, !- Name
  {ce334738-7eca-4f91-8a0a-5d0840dd7cb5}; !- HVAC Component

OS:PortList,
  {d0610626-d5de-4048-8e3e-4b5998a0dcec}, !- Handle
  {5c717faa-44e0-4318-91b0-2cc7df5e12f9}, !- Name
  {ce334738-7eca-4f91-8a0a-5d0840dd7cb5}; !- HVAC Component

OS:PortList,
  {e7c03d4e-81d6-493d-8635-73f202ce720f}, !- Handle
  {6ee04166-dcf1-4f51-910b-480cd6c5307d}, !- Name
  {ce334738-7eca-4f91-8a0a-5d0840dd7cb5}; !- HVAC Component

OS:Sizing:Zone,
  {a97809a1-ad04-4786-a4ed-57b916321585}, !- Handle
  {ce334738-7eca-4f91-8a0a-5d0840dd7cb5}, !- Zone or ZoneList Name
  SupplyAirTemperature,                   !- Zone Cooling Design Supply Air Temperature Input Method
  14,                                     !- Zone Cooling Design Supply Air Temperature {C}
  11.11,                                  !- Zone Cooling Design Supply Air Temperature Difference {deltaC}
  SupplyAirTemperature,                   !- Zone Heating Design Supply Air Temperature Input Method
  40,                                     !- Zone Heating Design Supply Air Temperature {C}
  11.11,                                  !- Zone Heating Design Supply Air Temperature Difference {deltaC}
  0.0085,                                 !- Zone Cooling Design Supply Air Humidity Ratio {kg-H2O/kg-air}
  0.008,                                  !- Zone Heating Design Supply Air Humidity Ratio {kg-H2O/kg-air}
  ,                                       !- Zone Heating Sizing Factor
  ,                                       !- Zone Cooling Sizing Factor
  DesignDay,                              !- Cooling Design Air Flow Method
  ,                                       !- Cooling Design Air Flow Rate {m3/s}
  ,                                       !- Cooling Minimum Air Flow per Zone Floor Area {m3/s-m2}
  ,                                       !- Cooling Minimum Air Flow {m3/s}
  ,                                       !- Cooling Minimum Air Flow Fraction
  DesignDay,                              !- Heating Design Air Flow Method
  ,                                       !- Heating Design Air Flow Rate {m3/s}
  ,                                       !- Heating Maximum Air Flow per Zone Floor Area {m3/s-m2}
  ,                                       !- Heating Maximum Air Flow {m3/s}
  ,                                       !- Heating Maximum Air Flow Fraction
  ,                                       !- Design Zone Air Distribution Effectiveness in Cooling Mode
  ,                                       !- Design Zone Air Distribution Effectiveness in Heating Mode
  No,                                     !- Account for Dedicated Outdoor Air System
  NeutralSupplyAir,                       !- Dedicated Outdoor Air System Control Strategy
  autosize,                               !- Dedicated Outdoor Air Low Setpoint Temperature for Design {C}
  autosize;                               !- Dedicated Outdoor Air High Setpoint Temperature for Design {C}

OS:ZoneHVAC:EquipmentList,
  {a1d2e372-67e2-43eb-848f-a0102e12798d}, !- Handle
  Zone HVAC Equipment List 2,             !- Name
  {ce334738-7eca-4f91-8a0a-5d0840dd7cb5}; !- Thermal Zone

OS:Space,
  {e3e60620-90ae-4d3e-9884-9b41cd2f9f47}, !- Handle
  RtS RetailSales C end_a - Story Ground, !- Name
  {ac24a14e-278f-4b05-b4b2-7b9c1864a6c7}, !- Space Type Name
  ,                                       !- Default Construction Set Name
  ,                                       !- Default Schedule Set Name
  -0,                                     !- Direction of Relative North {deg}
  -13.6319223061166,                      !- X Origin {m}
  9.05992230611663,                       !- Y Origin {m}
  0,                                      !- Z Origin {m}
  {e12d2047-fbcd-4128-97ae-0e67483f42a9}, !- Building Story Name
  {c4af5bcd-3bdf-467f-9d73-b0f1df2d19e8}; !- Thermal Zone Name

OS:Surface,
  {4fa3d1c8-593f-4569-9370-54e7890ea275}, !- Handle
  Surface 13,                             !- Name
  Floor,                                  !- Surface Type
  ,                                       !- Construction Name
  {e3e60620-90ae-4d3e-9884-9b41cd2f9f47}, !- Space Name
  Ground,                                 !- Outside Boundary Condition
  ,                                       !- Outside Boundary Condition Object
  NoSun,                                  !- Sun Exposure
  NoWind,                                 !- Wind Exposure
  ,                                       !- View Factor to Ground
  ,                                       !- Number of Vertices
  2.66453525910038e-014, 3.5527136788005e-015, 0, !- X,Y,Z Vertex 1 {m}
  2.66453525910038e-014, 4.57199999999997, 0, !- X,Y,Z Vertex 2 {m}
  4.572, 4.57199999999997, 0,             !- X,Y,Z Vertex 3 {m}
  4.572, 3.5527136788005e-015, 0;         !- X,Y,Z Vertex 4 {m}

OS:Surface,
  {45cd6f4a-e902-45d8-8c61-0d924b20e27c}, !- Handle
  Surface 14,                             !- Name
  Wall,                                   !- Surface Type
  ,                                       !- Construction Name
  {e3e60620-90ae-4d3e-9884-9b41cd2f9f47}, !- Space Name
  Outdoors,                               !- Outside Boundary Condition
  ,                                       !- Outside Boundary Condition Object
  SunExposed,                             !- Sun Exposure
  WindExposed,                            !- Wind Exposure
  ,                                       !- View Factor to Ground
  ,                                       !- Number of Vertices
  2.66453525910038e-014, 4.57199999999997, 3.6576, !- X,Y,Z Vertex 1 {m}
  2.66453525910038e-014, 4.57199999999997, 0, !- X,Y,Z Vertex 2 {m}
  2.66453525910038e-014, 3.5527136788005e-015, 0, !- X,Y,Z Vertex 3 {m}
  2.66453525910038e-014, 3.5527136788005e-015, 3.6576; !- X,Y,Z Vertex 4 {m}

OS:Surface,
  {4114ed56-8d03-45da-b2d5-0f44a3b2b2b5}, !- Handle
  Surface 15,                             !- Name
  Wall,                                   !- Surface Type
  ,                                       !- Construction Name
  {e3e60620-90ae-4d3e-9884-9b41cd2f9f47}, !- Space Name
  Outdoors,                               !- Outside Boundary Condition
  ,                                       !- Outside Boundary Condition Object
  SunExposed,                             !- Sun Exposure
  WindExposed,                            !- Wind Exposure
  ,                                       !- View Factor to Ground
  ,                                       !- Number of Vertices
  4.572, 4.57199999999997, 3.6576,        !- X,Y,Z Vertex 1 {m}
  4.572, 4.57199999999997, 0,             !- X,Y,Z Vertex 2 {m}
  2.66453525910038e-014, 4.57199999999997, 0, !- X,Y,Z Vertex 3 {m}
  2.66453525910038e-014, 4.57199999999997, 3.6576; !- X,Y,Z Vertex 4 {m}

OS:Surface,