
OS:Version,
  {646c5c33-e970-4a35-9799-cbd2e18a9fac}, !- Handle
  2.7.0;                                  !- Version Identifier

OS:SpaceType,
  {b0897266-83d6-4c51-a5d4-50b7fa7376e6}, !- Handle
  SCn WarehouseCond,                      !- Name
  ,                                       !- Default Construction Set Name
  ,                                       !- Default Schedule Set Name
  ,                                       !- Group Rendering Name
  ,                                       !- Design Specification Outdoor Air Object Name
  ,                                       !- Standards Template
  SCn,                                    !- Standards Building Type
  WarehouseCond;                          !- Standards Space Type

OS:Building,
  {ef471135-9712-45c9-bed9-99bfa224d9f7}, !- Handle
  DEER Pre-1975|SCn,                      !- Name
  ,                                       !- Building Sector Type
  ,                                       !- North Axis {deg}
  ,                                       !- Nominal Floor to Floor Height {m}
  ,                                       !- Space Type Name
  ,                                       !- Default Construction Set Name
  ;                                       !- Default Schedule Set Name

OS:Site,
  {65055abf-496b-4e3d-847d-07957d2d5a7d}, !- Handle
  Site 1,                                 !- Name
  ,                                       !- Latitude {deg}
  ,                                       !- Longitude {deg}
  ,                                       !- Time Zone {hr}
  ,                                       !- Elevation {m}
  ;                                       !- Terrain

OS:BuildingStory,
  {a93efe02-ca27-48ec-b8a8-387fd484c47d}, !- Handle
  Story Ground,                           !- Name
  0,                                      !- Nominal Z Coordinate {m}
  14.6304,                                !- Nominal Floor to Floor Height {m}
  ,                                       !- Default Construction Set Name
  ,                                       !- Default Schedule Set Name
  ;                                       !- Group Rendering Name

OS:Space,
  {8be65a74-915c-477f-a259-cc997eb33c08}, !- Handle
  SCn WarehouseCond A end_a - Story Ground, !- Name
  {b0897266-83d6-4c51-a5d4-50b7fa7376e6}, !- Space Type Name
  ,                                       !- Default Construction Set Name
  ,                                       !- Default Schedule Set Name
  -0,                                     !- Direction of Relative North {deg}
  -107.762103580804,                      !- X Origin {m}
  -107.762103580804,                      !- Y Origin {m}
  0,                                      !- Z Origin {m}
  {a93efe02-ca27-48ec-b8a8-387fd484c47d}, !- Building Story Name
  {41263533-b39c-4995-8fcc-d0d3faddb6ba}; !- Thermal Zone Name

OS:Surface,
  {8cd34160-a337-4a36-a2e7-7b45f2eb7062}, !- Handle
  Surface 1,                              !- Name
  Floor,                                  !- Surface Type
  ,                                       !- Construction Name
  {8be65a74-915c-477f-a259-cc997eb33c08}, !- Space Name
  Ground,                                 !- Outside Boundary Condition
  ,                                       !- Outside Boundary Condition Object
  NoSun,                                  !- Sun Exposure
  NoWind,                                 !- Wind Exposure
  ,                                       !- View Factor to Ground
  ,                                       !- Number of Vertices
  3.41060513164848e-013, 3.26849658449646e-013, 0, !- X,Y,Z Vertex 1 {m}
  3.41060513164848e-013, 4.57200000000032, 0, !- X,Y,Z Vertex 2 {m}
  4.57200000000033, 4.57200000000032, 0,  !- X,Y,Z Vertex 3 {m}
  4.57200000000033, 3.26849658449646e-013, 0; !- X,Y,Z Vertex 4 {m}

OS:Surface,
  {664f1526-c5fa-44af-956c-1fbde4a84bef}, !- Handle
  Surface 2,                              !- Name
  Wall,                                   !- Surface Type
  ,                                       !- Construction Name
  {8be65a74-915c-477f-a259-cc997eb33c08}, !- Space Name
  Outdoors,                               !- Outside Boundary Condition
  ,                                       !- Outside Boundary Condition Object
  SunExposed,                             !- Sun Exposure
  WindExposed,                            !- Wind Exposure
  ,                                       !- View Factor to Ground
  ,                                       !- Number of Vertices
  3.41060513164848e-013, 4.57200000000032, 14.6304, !- X,Y,Z Vertex 1 {m}
  3.41060513164848e-013, 4.57200000000032, 0, !- X,Y,Z Vertex 2 {m}
  3.41060513164848e-013, 3.26849658449646e-013, 0, !- X,Y,Z Vertex 3 {m}
  3.41060513164848e-013, 3.26849658449646e-013, 14.6304; !- X,Y,Z Vertex 4 {m}

OS:Surface,
  {675725f1-259c-4457-8846-435de9188a63}, !- Handle
  Surface 3,                              !- Name
  Wall,                                   !- Surface Type
  ,                                       !- Construction Name
  {8be65a74-915c-477f-a259-cc997eb33c08}, !- Space Name
  Surface,                                !- Outside Boundary Condition
  {29b568f8-718b-490a-82b3-5b42cce87736}, !- Outside Boundary Condition Object
  NoSun,                                  !- Sun Exposure
  NoWind,                                 !- Wind Exposure
  ,                                       !- View Factor to Ground
  ,                                       !- Number of Vertices
  4.57200000000033, 4.57200000000032, 14.6304, !- X,Y,Z Vertex 1 {m}
  4.57200000000033, 4.57200000000032, 0,  !- X,Y,Z Vertex 2 {m}
  3.41060513164848e-013, 4.57200000000032, 0, !- X,Y,Z Vertex 3 {m}
  3.41060513164848e-013, 4.57200000000032, 14.6304; !- X,Y,Z Vertex 4 {m}

OS:Surface,
  {8cdc3422-8bca-4fd3-ad49-24fc3680a928}, !- Handle
  Surface 4,                              !- Name
  Wall,                                   !- Surface Type
  ,                                       !- Construction Name
  {8be65a74-915c-477f-a259-cc997eb33c08}, !- Space Name
  Surface,                                !- Outside Boundary Condition
  {d40c1fc0-44e6-439a-a15b-54471e8b56d1}, !- Outside Boundary Condition Object
  NoSun,                                  !- Sun Exposure
  NoWind,                                 !- Wind Exposure
  ,                                       !- View Factor to Ground
  ,                                       !- Number of Vertices
  4.57200000000033, 3.26849658449646e-013, 14.6304, !- X,Y,Z Vertex 1 {m}
  4.57200000000033, 3.26849658449646e-013, 0, !- X,Y,Z Vertex 2 {m}
  4.57200000000033, 4.57200000000032, 0,  !- X,Y,Z Vertex 3 {m}
  4.57200000000033, 4.57200000000032, 14.6304; !- X,Y,Z Vertex 4 {m}

OS:Surface,
  {9c26360b-040e-4704-bf62-8c2856e8664a}, !- Handle
  Surface 5,                              !- Name
  Wall,                                   !- Surface Type
  ,                                       !- Construction Name
  {8be65a74-915c-477f-a259-cc997eb33c08}, !- Space Name
  Outdoors,                               !- Outside Boundary Condition
  ,                                       !- Outside Boundary Condition Object
  SunExposed,                             !- Sun Exposure
  WindExposed,                            !- Wind Exposure
  ,                                       !- View Factor to Ground
  ,                                       !- Number of Vertices
  3.41060513164848e-013, 3.26849658449646e-013, 14.6304, !- X,Y,Z Vertex 1 {m}
  3.41060513164848e-013, 3.26849658449646e-013, 0, !- X,Y,Z Vertex 2 {m}
  4.57200000000033, 3.26849658449646e-013, 0, !- X,Y,Z Vertex 3 {m}
  4.57200000000033, 3.26849658449646e-013, 14.6304; !- X,Y,Z Vertex 4 {m}

OS:Surface,
  {b2394ba0-e4b3-4f25-b0f3-a2a3072be4fc}, !- Handle
  Surface 6,                              !- Name
  RoofCeiling,                            !- Surface Type
  ,                                       !- Construction Name
  {8be65a74-915c-477f-a259-cc997eb33c08}, !- Space Name
  Outdoors,                               !- Outside Boundary Condition
  ,                                       !- Outside Boundary Condition Object
  SunExposed,                             !- Sun Exposure
  WindExposed,                            !- Wind Exposure
  ,                                       !- View Factor to Ground
  ,                                       !- Number of Vertices
  4.57200000000033, 3.26849658449646e-013, 14.6304, !- X,Y,Z Vertex 1 {m}
  4.57200000000033, 4.57200000000032, 14.6304, !- X,Y,Z Vertex 2 {m}
  3.41060513164848e-013, 4.57200000000032, 14.6304, !- X,Y,Z Vertex 3 {m}
  3.41060513164848e-013, 3.26849658449646e-013, 14.6304; !- X,Y,Z Vertex 4 {m}

OS:ThermalZone,
  {41263533-b39c-4995-8fcc-d0d3faddb6ba}, !- Handle
  Zone SCn WarehouseCond A end_a - Story Ground, !- Name
  1,                                      !- Multiplier
  ,                                       !- Ceiling Height {m}
  ,                                       !- Volume {m3}
  ,                                       !- Floor Area {m2}
  ,                                       !- Zone Inside Convection Algorithm
  ,                                       !- Zone Outside Convection Algorithm
  ,                                       !- Zone Conditioning Equipment List Name
  {012a6f56-3bf8-4470-b983-2379f8d9b4ad}, !- Zone Air Inlet Port List
  {b16c98cc-22c6-4827-be76-f3043a8a12a6}, !- Zone Air Exhaust Port List
  {a81e4fd8-9491-4e84-9d8d-cde5915d382a}, !- Zone Air Node Name
  {f09d6a54-f0e8-4864-91e0-69381daf91d6}, !- Zone Return Air Port List
  ,                                       !- Primary Daylighting Control Name
  ,                                       !- Fraction of Zone Controlled by Primary Daylighting Control
  ,                                       !- Secondary Daylighting Control Name
  ,                                       !- Fraction of Zone Controlled by Secondary Daylighting Control
  ,                                       !- Illuminance Map Name
  ,                                       !- Group Rendering Name
  ,                                       !- Thermostat Name
  No;                                     !- Use Ideal Air Loads

OS:Node,
  {86740564-50c4-49c8-bd0c-ced8cbef6e9b}, !- Handle
  Node 1,                                 !- Name
  {a81e4fd8-9491-4e84-9d8d-cde5915d382a}, !- Inlet Port
  ;                                       !- Outlet Port

OS:Connection,
  {a81e4fd8-9491-4e84-9d8d-cde5915d382a}, !- Handle
  {68d9291f-c701-4235-8ce5-c196a72eee1e}, !- Name
  {41263533-b39c-4995-8fcc-d0d3faddb6ba}, !- Source Object
  11,                                     !- Outlet Port
  {86740564-50c4-49c8-bd0c-ced8cbef6e9b}, !- Target Object
  2;                                      !- Inlet Port

OS:PortList,
  {012a6f56-3bf8-4470-b983-2379f8d9b4ad}, !- Handle
  {6df95a0e-92b8-4012-bd7c-5d7dff91d2b7}, !- Name
  {41263533-b39c-4995-8fcc-d0d3faddb6ba}; !- HVAC Component

OS:PortList,
  {b16c98cc-22c6-4827-be76-f3043a8a12a6}, !- Handle
  {388dcc59-bb45-483b-8d4e-3f155284549c}, !- Name
  {41263533-b39c-4995-8fcc-d0d3faddb6ba}; !- HVAC Component

OS:PortList,
  {f09d6a54-f0e8-4864-91e0-69381daf91d6}, !- Handle
  {5cea47aa-5d97-4b08-88c1-9e3bc8f70e7b}, !- Name
  {41263533-b39c-4995-8fcc-d0d3faddb6ba}; !- HVAC Component

OS:Sizing:Zone,
  {057bcbbc-4bc1-464f-87c3-0f5edfb7c666}, !- Handle
  {41263533-b39c-4995-8fcc-d0d3faddb6ba}, !- Zone or ZoneList Name
  SupplyAirTemperature,                   !- Zone Cooling Design Supply Air Temperature Input Method
  14,                                     !- Zone Cooling Design Supply Air Temperature {C}
  11.11,                                  !- Zone Cooling Design Supply Air Temperature Difference {deltaC}
  SupplyAirTemperature,                   !- Zone Heating Design Supply Air Temperature Input Method
  40,                                     !- Zone Heating Design Supply Air Temperature {C}
  11.11,                                  !- Zone Heating Design Supply Air Temperature Difference {deltaC}
  0.0085,                                 !- Zone Cooling Design Supply Air Humidity Ratio {kg-H2O/kg-air}
  0.008,                                  !- Zone Heating Design Supply Air Humidity Ratio {kg-H2O/kg-air}
  ,                                       !- Zone Heating Sizing Factor
  ,                                       !- Zone Cooling Sizing Factor
  DesignDay,                              !- Cooling Design Air Flow Method
  ,                                       !- Cooling Design Air Flow Rate {m3/s}
  ,                                       !- Cooling Minimum Air Flow per Zone Floor Area {m3/s-m2}
  ,                                       !- Cooling Minimum Air Flow {m3/s}
  ,                                       !- Cooling Minimum Air Flow Fraction
  DesignDay,                              !- Heating Design Air Flow Method
  ,                                       !- Heating Design Air Flow Rate {m3/s}
  ,                                       !- Heating Maximum Air Flow per Zone Floor Area {m3/s-m2}
  ,                                       !- Heating Maximum Air Flow {m3/s}
  ,                                       !- Heating Maximum Air Flow Fraction
  ,                                       !- Design Zone Air Distribution Effectiveness in Cooling Mode
  ,                                       !- Design Zone Air Distribution Effectiveness in Heating Mode
  No,                                     !- Account for Dedicated Outdoor Air System
  NeutralSupplyAir,                       !- Dedicated Outdoor Air System Control Strategy
  autosize,                               !- Dedicated Outdoor Air Low Setpoint Temperature for Design {C}
  autosize;                               !- Dedicated Outdoor Air High Setpoint Temperature for Design {C}

OS:ZoneHVAC:EquipmentList,
  {a0f25e7a-ca06-49db-9e7d-395fdb9f9fb1}, !- Handle
  Zone HVAC Equipment List 1,             !- Name
  {41263533-b39c-4995-8fcc-d0d3faddb6ba}; !- Thermal Zone

OS:Space,
  {9199399f-65eb-43f2-8fdb-40fc08545ee6}, !- Handle
  SCn WarehouseCond B end_a - Story Ground, !- Name
  {b0897266-83d6-4c51-a5d4-50b7fa7376e6}, !- Space Type Name
  ,                                       !- Default Construction Set Name
  ,                                       !- Default Schedule Set Name
  -0,                                     !- Direction of Relative North {deg}
  -107.762103580804,                      !- X Origin {m}
  -103.190103580804,                      !- Y Origin {m}
  0,                                      !- Z Origin {m}
  {a93efe02-ca27-48ec-b8a8-387fd484c47d}, !- Building Story Name
  {2828c23c-21c3-48b3-9fa5-37c7fc15a72f}; !- Thermal Zone Name

OS:Surface,
  {46173d9e-4e31-431e-a953-a517e4f5b212}, !- Handle
  Surface 7,                              !- Name
  Floor,                                  !- Surface Type
  ,                                       !- Construction Name
  {9199399f-65eb-43f2-8fdb-40fc08545ee6}, !- Space Name
  Ground,                                 !- Outside Boundary Condition
  ,                                       !- Outside Boundary Condition Object
  NoSun,                                  !- Sun Exposure
  NoWind,                                 !- Wind Exposure
  ,                                       !- View Factor to Ground
  ,                                       !- Number of Vertices
  3.41060513164848e-013, 3.12638803734444e-013, 0, !- X,Y,Z Vertex 1 {m}
  3.41060513164848e-013, 206.380207161608, 0, !- X,Y,Z Vertex 2 {m}
  4.57200000000033, 206.380207161608, 0,  !- X,Y,Z Vertex 3 {m}
  4.57200000000033, 3.12638803734444e-013, 0; !- X,Y,Z Vertex 4 {m}

OS:Surface,
  {9fd11f20-0185-43df-91af-fdb8f67e4f72}, !- Handle
  Surface 8,                              !- Name
  Wall,                                   !- Surface Type
  ,                                       !- Construction Name
  {9199399f-65eb-43f2-8fdb-40fc08545ee6}, !- Space Name
  Outdoors,                               !- Outside Boundary Condition
  ,                                       !- Outside Boundary Condition Object
  SunExposed,                             !- Sun Exposure
  WindExposed,                            !- Wind Exposure
  ,                                       !- View Factor to Ground
  ,                                       !- Number of Vertices
  3.41060513164848e-013, 206.380207161608, 14.6304, !- X,Y,Z Vertex 1 {m}
  3.41060513164848e-013, 206.380207161608, 0, !- X,Y,Z Vertex 2 {m}
  3.41060513164848e-013, 3.12638803734444e-013, 0, !- X,Y,Z Vertex 3 {m}
  3.41060513164848e-013, 3.12638803734444e-013, 14.6304; !- X,Y,Z Vertex 4 {m}

OS:Surface,
  {8c3a3464-815d-4974-bd05-b9f16a054df8}, !- Handle
  Surface 9,                              !- Name
  Wall,                                   !- Surface Type
  ,                                       !- Construction Name
  {9199399f-65eb-43f2-8fdb-40fc08545ee6}, !- Space Name
  Surface,                                !- Outside Boundary Condition
  {3597560d-7303-445c-8cc1-b17475a617b1}, !- Outside Boundary Condition Object
  NoSun,                                  !- Sun Exposure
  NoWind,                                 !- Wind Exposure
  ,                                       !- View Factor to Ground
  ,                                       !- Number of Vertices
  4.57200000000033, 206.380207161608, 14.6304, !- X,Y,Z Vertex 1 {m}
  4.57200000000033, 206.380207161608, 0,  !- X,Y,Z Vertex 2 {m}
  3.41060513164848e-013, 206.380207161608, 0, !- X,Y,Z Vertex 3 {m}
  3.41060513164848e-013, 206.380207161608, 14.6304; !- X,Y,Z Vertex 4 {m}

OS:Surface,
  {c349e310-ded4-4938-80c7-55f455b5d0d8}, !- Handle
  Surface 10,                             !- Name
  Wall,                                   !- Surface Type
  ,                                       !- Construction Name
  {9199399f-65eb-43f2-8fdb-40fc08545ee6}, !- Space Name
  Surface,                                !- Outside Boundary Condition
  {90028015-2145-4c98-b356-d4fd8f609da6}, !- Outside Boundary Condition Object
  NoSun,                                  !- Sun Exposure
  NoWind,                                 !- Wind Exposure
  ,                                       !- View Factor to Ground
  ,                                       !- Number of Vertices
  4.57200000000033, 3.12638803734444e-013, 14.6304, !- X,Y,Z Vertex 1 {m}
  4.57200000000033, 3.12638803734444e-013, 0, !- X,Y,Z Vertex 2 {m}
  4.57200000000033, 206.380207161608, 0,  !- X,Y,Z Vertex 3 {m}
  4.57200000000033, 206.380207161608, 14.6304; !- X,Y,Z Vertex 4 {m}

OS:Surface,
  {29b568f8-718b-490a-82b3-5b42cce87736}, !- Handle
  Surface 11,                             !- Name
  Wall,                                   !- Surface Type
  ,                                       !- Construction Name
  {9199399f-65eb-43f2-8fdb-40fc08545ee6}, !- Space Name
  Surface,                                !- Outside Boundary Condition
  {675725f1-259c-4457-8846-435de9188a63}, !- Outside Boundary Condition Object
  NoSun,                                  !- Sun Exposure
  NoWind,                                 !- Wind Exposure
  ,                                       !- View Factor to Ground
  ,                                       !- Number of Vertices
  3.41060513164848e-013, 3.12638803734444e-013, 14.6304, !- X,Y,Z Vertex 1 {m}
  3.41060513164848e-013, 3.12638803734444e-013, 0, !- X,Y,Z Vertex 2 {m}
  4.57200000000033, 3.12638803734444e-013, 0, !- X,Y,Z Vertex 3 {m}
  4.57200000000033, 3.12638803734444e-013, 14.6304; !- X,Y,Z Vertex 4 {m}

OS:Surface,
  {47981b33-33af-437f-bbf4-60c2d9e1ddcc}, !- Handle
  Surface 12,                             !- Name
  RoofCeiling,                            !- Surface Type
  ,                                       !- Construction Name
  {9199399f-65eb-43f2-8fdb-40fc08545ee6}, !- Space Name
  Outdoors,                               !- Outside Boundary Condition
  ,                                       !- Outside Boundary Condition Object
  SunExposed,                             !- Sun Exposure
  WindExposed,                            !- Wind Exposure
  ,                                       !- View Factor to Ground
  ,                                       !- Number of Vertices
  4.57200000000033, 3.12638803734444e-013, 14.6304, !- X,Y,Z Vertex 1 {m}
  4.57200000000033, 206.380207161608, 14.6304, !- X,Y,Z Vertex 2 {m}
  3.41060513164848e-013, 206.380207161608, 14.6304, !- X,Y,Z Vertex 3 {m}
  3.41060513164848e-013, 3.12638803734444e-013, 14.6304; !- X,Y,Z Vertex 4 {m}

OS:ThermalZone,
  {2828c23c-21c3-48b3-9fa5-37c7fc15a72f}, !- Handle
  Zone SCn WarehouseCond B end_a - Story Ground, !- Name
  1,                                      !- Multiplier
  ,                                       !- Ceiling Height {m}
  ,                                       !- Volume {m3}
  ,                                       !- Floor Area {m2}
  ,                                       !- Zone Inside Convection Algorithm
  ,                                       !- Zone Outside Convection Algorithm
  ,                                       !- Zone Conditioning Equipment List Name
  {246b976f-e676-4c71-8dbb-0b11fe76c1b3}, !- Zone Air Inlet Port List
  {18accc69-791f-4cff-83df-e2a66da63cdf}, !- Zone Air Exhaust Port List
  {3cd6ea61-2871-4b61-bd00-82379b4c3562}, !- Zone Air Node Name
  {4d5bd3eb-60be-4ffc-8a29-92f847188e3e}, !- Zone Return Air Port List
  ,                                       !- Primary Daylighting Control Name
  ,                                       !- Fraction of Zone Controlled by Primary Daylighting Control
  ,                                       !- Secondary Daylighting Control Name
  ,                                       !- Fraction of Zone Controlled by Secondary Daylighting Control
  ,                                       !- Illuminance Map Name
  ,                                       !- Group Rendering Name
  ,                                       !- Thermostat Name
  No;                                     !- Use Ideal Air Loads

OS:Node,
  {fe63cd6d-01a4-4b20-84f2-5a929669cf1b}, !- Handle
  Node 2,                                 !- Name
  {3cd6ea61-2871-4b61-bd00-82379b4c3562}, !- Inlet Port
  ;                                       !- Outlet Port

OS:Connection,
  {3cd6ea61-2871-4b61-bd00-82379b4c3562}, !- Handle
  {ccb8db05-416b-4ff6-b1e3-80f1bf9553e1}, !- Name
  {2828c23c-21c3-48b3-9fa5-37c7fc15a72f}, !- Source Object
  11,                                     !- Outlet Port
  {fe63cd6d-01a4-4b20-84f2-5a929669cf1b}, !- Target Object
  2;                                      !- Inlet Port

OS:PortList,
  {246b976f-e676-4c71-8dbb-0b11fe76c1b3}, !- Handle
  {f53ecf4e-4f07-4d97-864d-feaa0c1a9119}, !- Name
  {2828c23c-21c3-48b3-9fa5-37c7fc15a72f}; !- HVAC Component

OS:PortList,
  {18accc69-791f-4cff-83df-e2a66da63cdf}, !- Handle
  {e9aff56d-fd89-4b16-b9c5-c5ec2bc7316f}, !- Name
  {2828c23c-21c3-48b3-9fa5-37c7fc15a72f}; !- HVAC Component

OS:PortList,
  {4d5bd3eb-60be-4ffc-8a29-92f847188e3e}, !- Handle
  {94353f57-7414-4b46-9650-0261cc3f3f7f}, !- Name
  {2828c23c-21c3-48b3-9fa5-37c7fc15a72f}; !- HVAC Component

OS:Sizing:Zone,
  {455d91f4-f89b-482a-bbc7-bd79d5e4c1de}, !- Handle
  {2828c23c-21c3-48b3-9fa5-37c7fc15a72f}, !- Zone or ZoneList Name
  SupplyAirTemperature,                   !- Zone Cooling Design Supply Air Temperature Input Method
  14,                                     !- Zone Cooling Design Supply Air Temperature {C}
  11.11,                                  !- Zone Cooling Design Supply Air Temperature Difference {deltaC}
  SupplyAirTemperature,                   !- Zone Heating Design Supply Air Temperature Input Method
  40,                                     !- Zone Heating Design Supply Air Temperature {C}
  11.11,                                  !- Zone Heating Design Supply Air Temperature Difference {deltaC}
  0.0085,                                 !- Zone Cooling Design Supply Air Humidity Ratio {kg-H2O/kg-air}
  0.008,                                  !- Zone Heating Design Supply Air Humidity Ratio {kg-H2O/kg-air}
  ,                                       !- Zone Heating Sizing Factor
  ,                                       !- Zone Cooling Sizing Factor
  DesignDay,                              !- Cooling Design Air Flow Method
  ,                                       !- Cooling Design Air Flow Rate {m3/s}
  ,                                       !- Cooling Minimum Air Flow per Zone Floor Area {m3/s-m2}
  ,                                       !- Cooling Minimum Air Flow {m3/s}
  ,                                       !- Cooling Minimum Air Flow Fraction
  DesignDay,                              !- Heating Design Air Flow Method
  ,                                       !- Heating Design Air Flow Rate {m3/s}
  ,                                       !- Heating Maximum Air Flow per Zone Floor Area {m3/s-m2}
  ,                                       !- Heating Maximum Air Flow {m3/s}
  ,                                       !- Heating Maximum Air Flow Fraction
  ,                                       !- Design Zone Air Distribution Effectiveness in Cooling Mode
  ,                                       !- Design Zone Air Distribution Effectiveness in Heating Mode
  No,                                     !- Account for Dedicated Outdoor Air System
  NeutralSupplyAir,                       !- Dedicated Outdoor Air System Control Strategy
  autosize,                               !- Dedicated Outdoor Air Low Setpoint Temperature for Design {C}
  autosize;                               !- Dedicated Outdoor Air High Setpoint Temperature for Design {C}

OS:ZoneHVAC:EquipmentList,
  {724dc6c5-47f5-4461-9d0c-d26cdd6262dc}, !- Handle
  Zone HVAC Equipment List 2,             !- Name
  {2828c23c-21c3-48b3-9fa5-37c7fc15a72f}; !- Thermal Zone

OS:Space,
  {1ed02b35-4353-437b-811a-1fd897237e68}, !- Handle
  SCn WarehouseCond C end_a - Story Ground, !- Name
  {b0897266-83d6-4c51-a5d4-50b7fa7376e6}, !- Space Type Name
  ,                                       !- Default Construction Set Name
  ,                                       !- Default Schedule Set Name
  -0,                                     !- Direction of Relative North {deg}
  -107.762103580804,                      !- X Origin {m}
  103.190103580804,                       !- Y Origin {m}
  0,                                      !- Z Origin {m}
  {a93efe02-ca27-48ec-b8a8-387fd484c47d}, !- Building Story Name
  {d8341fd4-7f6b-47ed-9631-2b0568b50277}; !- Thermal Zone Name

OS:Surface,
  {51ca9c20-345b-4338-92e6-20d5def12d2a}, !- Handle
  Surface 13,                             !- Name
  Floor,                                  !- Surface Type
  ,                                       !- Construction Name
  {1ed02b35-4353-437b-811a-1fd897237e68}, !- Space Name
  Ground,                                 !- Outside Boundary Condition
  ,                                       !- Outside Boundary Condition Object
  NoSun,                                  !- Sun Exposure
  NoWind,                                 !- Wind Exposure
  ,                                       !- View Factor to Ground
  ,                                       !- Number of Vertices
  3.41060513164848e-013, -3.12638803734444e-013, 0, !- X,Y,Z Vertex 1 {m}
  3.41060513164848e-013, 4.57199999999968, 0, !- X,Y,Z Vertex 2 {m}
  4.57200000000033, 4.57199999999968, 0,  !- X,Y,Z Vertex 3 {m}
  4.57200000000033, -3.12638803734444e-013, 0; !- X,Y,Z Vertex 4 {m}

OS:Surface,
  {dc39c112-580d-4b0c-bebb-a36fa0012245}, !- Handle
  Surface 14,                             !- Name
  Wall,                                   !- Surface Type
  ,                                       !- Construction Name
  {1ed02b35-4353-437b-811a-1fd897237e68}, !- Space Name
  Outdoors,                               !- Outside Boundary Condition
  ,                                       !- Outside Boundary Condition Object
  SunExposed,                             !- Sun Exposure
  WindExposed,                            !- Wind Exposure
  ,                                       !- View Factor to Ground
  ,                                       !- Number of Vertices
  3.41060513164848e-013, 4.57199999999968, 14.6304, !- X,Y,Z Vertex 1 {m}
  3.41060513164848e-013, 4.57199999999968, 0, !- X,Y,Z Vertex 2 {m}
  3.41060513164848e-013, -3.12638803734444e-013, 0, !- X,Y,Z Vertex 3 {m}
  3.41060513164848e-013, -3.12638803734444e-013, 14.6304; !- X,Y,Z Vertex 4 {m}

OS:Surface,
  {db6dec88-f5f7-4c9b-a23e-adc9deedb260}, !- Handle
  Surface 15,                             !- Name
  Wall,                                   !- Surface Type
  ,                                       !- Construction Name
  {1ed02b35-4353-437b-811a-1fd897237e68}, !- Space Name
  Outdoors,                               !- Outside Boundary Condition
  ,                                       !- Outside Boundary Condition Object
  SunExposed,                             !- Sun Exposure
  WindExposed,                            !- Wind Exposure
  ,                                       !- View Factor to Ground
  ,                                       !- Number of Vertices
  4.57200000000033, 4.57199999999968, 14.6304, !- X,Y,Z Vertex 1 {m}
  4.57200000000033, 4.57199999999968, 0,  !- X,Y,Z Vertex 2 {m}
  3.41060513164848e-013, 4.57199999999968, 0, !- X,Y,Z Vertex 3 {m}
  3.41060513164848e-013, 4.57199999999968, 14.6304; !- X,Y,Z Vertex 4 {m}

OS:Surface,
  {0533de0d-f5ba-45e5-93e6-54ba7962e62f}, !- Handle
  Surface 16,                             !- Name
  Wall,                                   !- Surface Type
  ,                                       !- Construction Name
  {1ed02b35-4353-437b-811a-1fd897237e68}, !- Space Name
  Surface,                                !- Outside Boundary Condition
  {cbd31ac5-fad9-4bd7-98f6-f2efb4719be5}, !- Outside Boundary Condition Object