
OS:Version,
  {dd3e16d5-8781-4b28-85a4-fa33b35973a1}, !- Handle
  2.7.0;                                  !- Version Identifier

OS:SpaceType,
  {bc72c6d8-61ec-476e-9600-0ad3e157669b}, !- Handle
  SUn WarehouseUnCond,                    !- Name
  ,                                       !- Default Construction Set Name
  ,                                       !- Default Schedule Set Name
  ,                                       !- Group Rendering Name
  ,                                       !- Design Specification Outdoor Air Object Name
  ,                                       !- Standards Template
  SUn,                                    !- Standards Building Type
  WarehouseUnCond;                        !- Standards Space Type

OS:Building,
  {6a74df99-2c1a-4853-80ad-138377bdc26d}, !- Handle
  DEER Pre-1975|SUn,                      !- Name
  ,                                       !- Building Sector Type
  ,                                       !- North Axis {deg}
  ,                                       !- Nominal Floor to Floor Height {m}
  ,                                       !- Space Type Name
  ,                                       !- Default Construction Set Name
  ;                                       !- Default Schedule Set Name

OS:Site,
  {d668e930-2c7a-4c63-8495-fcd5ea933b66}, !- Handle
  Site 1,                                 !- Name
  ,                                       !- Latitude {deg}
  ,                                       !- Longitude {deg}
  ,                                       !- Time Zone {hr}
  ,                                       !- Elevation {m}
  ;                                       !- Terrain

OS:BuildingStory,
  {b3903f46-06d3-4deb-ad41-66c60e8c0562}, !- Handle
  Story Ground,                           !- Name
  0,                                      !- Nominal Z Coordinate {m}
  14.6304,                                !- Nominal Floor to Floor Height {m}
  ,                                       !- Default Construction Set Name
  ,                                       !- Default Schedule Set Name
  ;                                       !- Group Rendering Name

OS:Space,
  {7c2afa25-9c16-4127-9dd5-35ae53261377}, !- Handle
  SUn WarehouseUnCond A end_a - Story Ground, !- Name
  {bc72c6d8-61ec-476e-9600-0ad3e157669b}, !- Space Type Name
  ,                                       !- Default Construction Set Name
  ,                                       !- Default Schedule Set Name
  -0,                                     !- Direction of Relative North {deg}
  -107.762103580804,                      !- X Origin {m}
  -107.762103580804,                      !- Y Origin {m}
  0,                                      !- Z Origin {m}
  {b3903f46-06d3-4deb-ad41-66c60e8c0562}, !- Building Story Name
  {c7c1863d-b2e5-4d3a-b120-cbd82e7da3d8}; !- Thermal Zone Name

OS:Surface,
  {97d7dd78-7094-4f0a-a90a-46a2076982ff}, !- Handle
  Surface 1,                              !- Name
  Floor,                                  !- Surface Type
  ,                                       !- Construction Name
  {7c2afa25-9c16-4127-9dd5-35ae53261377}, !- Space Name
  Ground,                                 !- Outside Boundary Condition
  ,                                       !- Outside Boundary Condition Object
  NoSun,                                  !- Sun Exposure
  NoWind,                                 !- Wind Exposure
  ,                                       !- View Factor to Ground
  ,                                       !- Number of Vertices
  3.41060513164848e-013, 3.26849658449646e-013, 0, !- X,Y,Z Vertex 1 {m}
  3.41060513164848e-013, 4.57200000000032, 0, !- X,Y,Z Vertex 2 {m}
  4.57200000000033, 4.57200000000032, 0,  !- X,Y,Z Vertex 3 {m}
  4.57200000000033, 3.26849658449646e-013, 0; !- X,Y,Z Vertex 4 {m}

OS:Surface,
  {5b22a599-1d3b-4214-aeb2-6667df1354d6}, !- Handle
  Surface 2,                              !- Name
  Wall,                                   !- Surface Type
  ,                                       !- Construction Name
  {7c2afa25-9c16-4127-9dd5-35ae53261377}, !- Space Name
  Outdoors,                               !- Outside Boundary Condition
  ,                                       !- Outside Boundary Condition Object
  SunExposed,                             !- Sun Exposure
  WindExposed,                            !- Wind Exposure
  ,                                       !- View Factor to Ground
  ,                                       !- Number of Vertices
  3.41060513164848e-013, 4.57200000000032, 14.6304, !- X,Y,Z Vertex 1 {m}
  3.41060513164848e-013, 4.57200000000032, 0, !- X,Y,Z Vertex 2 {m}
  3.41060513164848e-013, 3.26849658449646e-013, 0, !- X,Y,Z Vertex 3 {m}
  3.41060513164848e-013, 3.26849658449646e-013, 14.6304; !- X,Y,Z Vertex 4 {m}

OS:Surface,
  {9b9c8b2f-3a3c-4110-8024-7d1fce1b882a}, !- Handle
  Surface 3,                              !- Name
  Wall,                                   !- Surface Type
  ,                                       !- Construction Name
  {7c2afa25-9c16-4127-9dd5-35ae53261377}, !- Space Name
  Surface,                                !- Outside Boundary Condition
  {32c4699d-ecbc-45b4-8b06-2cbb21f76cda}, !- Outside Boundary Condition Object
  NoSun,                                  !- Sun Exposure
  NoWind,                                 !- Wind Exposure
  ,                                       !- View Factor to Ground
  ,                                       !- Number of Vertices
  4.57200000000033, 4.57200000000032, 14.6304, !- X,Y,Z Vertex 1 {m}
  4.57200000000033, 4.57200000000032, 0,  !- X,Y,Z Vertex 2 {m}
  3.41060513164848e-013, 4.57200000000032, 0, !- X,Y,Z Vertex 3 {m}
  3.41060513164848e-013, 4.57200000000032, 14.6304; !- X,Y,Z Vertex 4 {m}

OS:Surface,
  {63bf02de-f05e-4091-82ec-ebf0deba5ef8}, !- Handle
  Surface 4,                              !- Name
  Wall,                                   !- Surface Type
  ,                                       !- Construction Name
  {7c2afa25-9c16-4127-9dd5-35ae53261377}, !- Space Name
  Surface,                                !- Outside Boundary Condition
  {15db5366-f688-4aac-aac3-ce2ef5841fc2}, !- Outside Boundary Condition Object
  NoSun,                                  !- Sun Exposure
  NoWind,                                 !- Wind Exposure
  ,                                       !- View Factor to Ground
  ,                                       !- Number of Vertices
  4.57200000000033, 3.26849658449646e-013, 14.6304, !- X,Y,Z Vertex 1 {m}
  4.57200000000033, 3.26849658449646e-013, 0, !- X,Y,Z Vertex 2 {m}
  4.57200000000033, 4.57200000000032, 0,  !- X,Y,Z Vertex 3 {m}
  4.57200000000033, 4.57200000000032, 14.6304; !- X,Y,Z Vertex 4 {m}

OS:Surface,
  {e3bde358-18cd-4d23-8660-4088f495f481}, !- Handle
  Surface 5,                              !- Name
  Wall,                                   !- Surface Type
  ,                                       !- Construction Name
  {7c2afa25-9c16-4127-9dd5-35ae53261377}, !- Space Name
  Outdoors,                               !- Outside Boundary Condition
  ,                                       !- Outside Boundary Condition Object
  SunExposed,                             !- Sun Exposure
  WindExposed,                            !- Wind Exposure
  ,                                       !- View Factor to Ground
  ,                                       !- Number of Vertices
  3.41060513164848e-013, 3.26849658449646e-013, 14.6304, !- X,Y,Z Vertex 1 {m}
  3.41060513164848e-013, 3.26849658449646e-013, 0, !- X,Y,Z Vertex 2 {m}
  4.57200000000033, 3.26849658449646e-013, 0, !- X,Y,Z Vertex 3 {m}
  4.57200000000033, 3.26849658449646e-013, 14.6304; !- X,Y,Z Vertex 4 {m}

OS:Surface,
  {25865374-b14a-44fa-8e2d-79a32fbfb29d}, !- Handle
  Surface 6,                              !- Name
  RoofCeiling,                            !- Surface Type
  ,                                       !- Construction Name
  {7c2afa25-9c16-4127-9dd5-35ae53261377}, !- Space Name
  Outdoors,                               !- Outside Boundary Condition
  ,                                       !- Outside Boundary Condition Object
  SunExposed,                             !- Sun Exposure
  WindExposed,                            !- Wind Exposure
  ,                                       !- View Factor to Ground
  ,                                       !- Number of Vertices
  4.57200000000033, 3.26849658449646e-013, 14.6304, !- X,Y,Z Vertex 1 {m}
  4.57200000000033, 4.57200000000032, 14.6304, !- X,Y,Z Vertex 2 {m}
  3.41060513164848e-013, 4.57200000000032, 14.6304, !- X,Y,Z Vertex 3 {m}
  3.41060513164848e-013, 3.26849658449646e-013, 14.6304; !- X,Y,Z Vertex 4 {m}

OS:ThermalZone,
  {c7c1863d-b2e5-4d3a-b120-cbd82e7da3d8}, !- Handle
  Zone SUn WarehouseUnCond A end_a - Story Ground, !- Name
  1,                                      !- Multiplier
  ,                                       !- Ceiling Height {m}
  ,                                       !- Volume {m3}
  ,                                       !- Floor Area {m2}
  ,                                       !- Zone Inside Convection Algorithm
  ,                                       !- Zone Outside Convection Algorithm
  ,                                       !- Zone Conditioning Equipment List Name
  {578d5523-8a8c-426a-9927-57be36ff7a5c}, !- Zone Air Inlet Port List
  {79410d05-1da1-4a98-83fe-adc952416850}, !- Zone Air Exhaust Port List
  {c5c30ff1-47d6-48f7-966a-6675633f7751}, !- Zone Air Node Name
  {77b17ea6-da6c-4311-93ff-60614eb1dcd4}, !- Zone Return Air Port List
  ,                                       !- Primary Daylighting Control Name
  ,                                       !- Fraction of Zone Controlled by Primary Daylighting Control
  ,                                       !- Secondary Daylighting Control Name
  ,                                       !- Fraction of Zone Controlled by Secondary Daylighting Control
  ,                                       !- Illuminance Map Name
  ,                                       !- Group Rendering Name
  ,                                       !- Thermostat Name
  No;                                     !- Use Ideal Air Loads

OS:Node,
  {6b2b4437-9786-4086-91c4-f522dfa00568}, !- Handle
  Node 1,                                 !- Name
  {c5c30ff1-47d6-48f7-966a-6675633f7751}, !- Inlet Port
  ;                                       !- Outlet Port

OS:Connection,
  {c5c30ff1-47d6-48f7-966a-6675633f7751}, !- Handle
  {941c67ea-0ba9-4262-a77e-95896c42bd14}, !- Name
  {c7c1863d-b2e5-4d3a-b120-cbd82e7da3d8}, !- Source Object
  11,                                     !- Outlet Port
  {6b2b4437-9786-4086-91c4-f522dfa00568}, !- Target Object
  2;                                      !- Inlet Port

OS:PortList,
  {578d5523-8a8c-426a-9927-57be36ff7a5c}, !- Handle
  {872f1340-9017-42d0-bfe9-0f81d6f42af3}, !- Name
  {c7c1863d-b2e5-4d3a-b120-cbd82e7da3d8}; !- HVAC Component

OS:PortList,
  {79410d05-1da1-4a98-83fe-adc952416850}, !- Handle
  {3d5d0c64-817d-4ede-a05f-c166dbf1e00f}, !- Name
  {c7c1863d-b2e5-4d3a-b120-cbd82e7da3d8}; !- HVAC Component

OS:PortList,
  {77b17ea6-da6c-4311-93ff-60614eb1dcd4}, !- Handle
  {9bea68fc-b36d-4ee7-80d3-5f959fda1b08}, !- Name
  {c7c1863d-b2e5-4d3a-b120-cbd82e7da3d8}; !- HVAC Component

OS:Sizing:Zone,
  {cac2bc00-82bc-4b44-9edb-7828eaf22a62}, !- Handle
  {c7c1863d-b2e5-4d3a-b120-cbd82e7da3d8}, !- Zone or ZoneList Name
  SupplyAirTemperature,                   !- Zone Cooling Design Supply Air Temperature Input Method
  14,                                     !- Zone Cooling Design Supply Air Temperature {C}
  11.11,                                  !- Zone Cooling Design Supply Air Temperature Difference {deltaC}
  SupplyAirTemperature,                   !- Zone Heating Design Supply Air Temperature Input Method
  40,                                     !- Zone Heating Design Supply Air Temperature {C}
  11.11,                                  !- Zone Heating Design Supply Air Temperature Difference {deltaC}
  0.0085,                                 !- Zone Cooling Design Supply Air Humidity Ratio {kg-H2O/kg-air}
  0.008,                                  !- Zone Heating Design Supply Air Humidity Ratio {kg-H2O/kg-air}
  ,                                       !- Zone Heating Sizing Factor
  ,                                       !- Zone Cooling Sizing Factor
  DesignDay,                              !- Cooling Design Air Flow Method
  ,                                       !- Cooling Design Air Flow Rate {m3/s}
  ,                                       !- Cooling Minimum Air Flow per Zone Floor Area {m3/s-m2}
  ,                                       !- Cooling Minimum Air Flow {m3/s}
  ,                                       !- Cooling Minimum Air Flow Fraction
  DesignDay,                              !- Heating Design Air Flow Method
  ,                                       !- Heating Design Air Flow Rate {m3/s}
  ,                                       !- Heating Maximum Air Flow per Zone Floor Area {m3/s-m2}
  ,                                       !- Heating Maximum Air Flow {m3/s}
  ,                                       !- Heating Maximum Air Flow Fraction
  ,                                       !- Design Zone Air Distribution Effectiveness in Cooling Mode
  ,                                       !- Design Zone Air Distribution Effectiveness in Heating Mode
  No,                                     !- Account for Dedicated Outdoor Air System
  NeutralSupplyAir,                       !- Dedicated Outdoor Air System Control Strategy
  autosize,                               !- Dedicated Outdoor Air Low Setpoint Temperature for Design {C}
  autosize;                               !- Dedicated Outdoor Air High Setpoint Temperature for Design {C}

OS:ZoneHVAC:EquipmentList,
  {98efca95-1705-4b64-b291-ee43762635bf}, !- Handle
  Zone HVAC Equipment List 1,             !- Name
  {c7c1863d-b2e5-4d3a-b120-cbd82e7da3d8}; !- Thermal Zone

OS:Space,
  {b8ec033b-8075-4985-8b30-83ad9763804b}, !- Handle
  SUn WarehouseUnCond B end_a - Story Ground, !- Name
  {bc72c6d8-61ec-476e-9600-0ad3e157669b}, !- Space Type Name
  ,                                       !- Default Construction Set Name
  ,                                       !- Default Schedule Set Name
  -0,                                     !- Direction of Relative North {deg}
  -107.762103580804,                      !- X Origin {m}
  -103.190103580804,                      !- Y Origin {m}
  0,                                      !- Z Origin {m}
  {b3903f46-06d3-4deb-ad41-66c60e8c0562}, !- Building Story Name
  {bd1d437f-e6ca-4049-935b-f69ed2807ece}; !- Thermal Zone Name

OS:Surface,
  {39fa38e8-e9ea-44bb-8900-12f2e77c2007}, !- Handle
  Surface 7,                              !- Name
  Floor,                                  !- Surface Type
  ,                                       !- Construction Name
  {b8ec033b-8075-4985-8b30-83ad9763804b}, !- Space Name
  Ground,                                 !- Outside Boundary Condition
  ,                                       !- Outside Boundary Condition Object
  NoSun,                                  !- Sun Exposure
  NoWind,                                 !- Wind Exposure
  ,                                       !- View Factor to Ground
  ,                                       !- Number of Vertices
  3.41060513164848e-013, 3.12638803734444e-013, 0, !- X,Y,Z Vertex 1 {m}
  3.41060513164848e-013, 206.380207161608, 0, !- X,Y,Z Vertex 2 {m}
  4.57200000000033, 206.380207161608, 0,  !- X,Y,Z Vertex 3 {m}
  4.57200000000033, 3.12638803734444e-013, 0; !- X,Y,Z Vertex 4 {m}

OS:Surface,
  {ebf8696e-1abb-4ee1-ac27-8f14b12efa0e}, !- Handle
  Surface 8,                              !- Name
  Wall,                                   !- Surface Type
  ,                                       !- Construction Name
  {b8ec033b-8075-4985-8b30-83ad9763804b}, !- Space Name
  Outdoors,                               !- Outside Boundary Condition
  ,                                       !- Outside Boundary Condition Object
  SunExposed,                             !- Sun Exposure
  WindExposed,                            !- Wind Exposure
  ,                                       !- View Factor to Ground
  ,                                       !- Number of Vertices
  3.41060513164848e-013, 206.380207161608, 14.6304, !- X,Y,Z Vertex 1 {m}
  3.41060513164848e-013, 206.380207161608, 0, !- X,Y,Z Vertex 2 {m}
  3.41060513164848e-013, 3.12638803734444e-013, 0, !- X,Y,Z Vertex 3 {m}
  3.41060513164848e-013, 3.12638803734444e-013, 14.6304; !- X,Y,Z Vertex 4 {m}

OS:Surface,
  {81ebc662-3f20-4d76-a8c1-947e6421bdc0}, !- Handle
  Surface 9,                              !- Name
  Wall,                                   !- Surface Type
  ,                                       !- Construction Name
  {b8ec033b-8075-4985-8b30-83ad9763804b}, !- Space Name
  Surface,                                !- Outside Boundary Condition
  {24d026c6-538c-4dac-b133-d65bdd8a9bbd}, !- Outside Boundary Condition Object
  NoSun,                                  !- Sun Exposure
  NoWind,                                 !- Wind Exposure
  ,                                       !- View Factor to Ground
  ,                                       !- Number of Vertices
  4.57200000000033, 206.380207161608, 14.6304, !- X,Y,Z Vertex 1 {m}
  4.57200000000033, 206.380207161608, 0,  !- X,Y,Z Vertex 2 {m}
  3.41060513164848e-013, 206.380207161608, 0, !- X,Y,Z Vertex 3 {m}
  3.41060513164848e-013, 206.380207161608, 14.6304; !- X,Y,Z Vertex 4 {m}

OS:Surface,
  {5a396ef4-d5b8-416a-b15b-c9221459c35c}, !- Handle
  Surface 10,                             !- Name
  Wall,                                   !- Surface Type
  ,                                       !- Construction Name
  {b8ec033b-8075-4985-8b30-83ad9763804b}, !- Space Name
  Surface,                                !- Outside Boundary Condition
  {5415bc64-31c2-4f9b-a66f-381473ce01eb}, !- Outside Boundary Condition Object
  NoSun,                                  !- Sun Exposure
  NoWind,                                 !- Wind Exposure
  ,                                       !- View Factor to Ground
  ,                                       !- Number of Vertices
  4.57200000000033, 3.12638803734444e-013, 14.6304, !- X,Y,Z Vertex 1 {m}
  4.57200000000033, 3.12638803734444e-013, 0, !- X,Y,Z Vertex 2 {m}
  4.57200000000033, 206.380207161608, 0,  !- X,Y,Z Vertex 3 {m}
  4.57200000000033, 206.380207161608, 14.6304; !- X,Y,Z Vertex 4 {m}

OS:Surface,
  {32c4699d-ecbc-45b4-8b06-2cbb21f76cda}, !- Handle
  Surface 11,                             !- Name
  Wall,                                   !- Surface Type
  ,                                       !- Construction Name
  {b8ec033b-8075-4985-8b30-83ad9763804b}, !- Space Name
  Surface,                                !- Outside Boundary Condition
  {9b9c8b2f-3a3c-4110-8024-7d1fce1b882a}, !- Outside Boundary Condition Object
  NoSun,                                  !- Sun Exposure
  NoWind,                                 !- Wind Exposure
  ,                                       !- View Factor to Ground
  ,                                       !- Number of Vertices
  3.41060513164848e-013, 3.12638803734444e-013, 14.6304, !- X,Y,Z Vertex 1 {m}
  3.41060513164848e-013, 3.12638803734444e-013, 0, !- X,Y,Z Vertex 2 {m}
  4.57200000000033, 3.12638803734444e-013, 0, !- X,Y,Z Vertex 3 {m}
  4.57200000000033, 3.12638803734444e-013, 14.6304; !- X,Y,Z Vertex 4 {m}

OS:Surface,
  {2f2715d7-e9e5-4752-96a9-87399975f3c2}, !- Handle
  Surface 12,                             !- Name
  RoofCeiling,                            !- Surface Type
  ,                                       !- Construction Name
  {b8ec033b-8075-4985-8b30-83ad9763804b}, !- Space Name
  Outdoors,                               !- Outside Boundary Condition
  ,                                       !- Outside Boundary Condition Object
  SunExposed,                             !- Sun Exposure
  WindExposed,                            !- Wind Exposure
  ,                                       !- View Factor to Ground
  ,                                       !- Number of Vertices
  4.57200000000033, 3.12638803734444e-013, 14.6304, !- X,Y,Z Vertex 1 {m}
  4.57200000000033, 206.380207161608, 14.6304, !- X,Y,Z Vertex 2 {m}
  3.41060513164848e-013, 206.380207161608, 14.6304, !- X,Y,Z Vertex 3 {m}
  3.41060513164848e-013, 3.12638803734444e-013, 14.6304; !- X,Y,Z Vertex 4 {m}

OS:ThermalZone,
  {bd1d437f-e6ca-4049-935b-f69ed2807ece}, !- Handle
  Zone SUn WarehouseUnCond B end_a - Story Ground, !- Name
  1,                                      !- Multiplier
  ,                                       !- Ceiling Height {m}
  ,                                       !- Volume {m3}
  ,                                       !- Floor Area {m2}
  ,                                       !- Zone Inside Convection Algorithm
  ,                                       !- Zone Outside Convection Algorithm
  ,                                       !- Zone Conditioning Equipment List Name
  {84c0967c-c1bf-4d9b-8067-14de2fb2807b}, !- Zone Air Inlet Port List
  {f5ea0715-aac6-4ee4-919d-5e578faf376e}, !- Zone Air Exhaust Port List
  {99449de1-7186-4abd-b77e-4ab6e8c9a6a6}, !- Zone Air Node Name
  {2d0b50c4-2d80-4139-9633-4832a516d903}, !- Zone Return Air Port List
  ,                                       !- Primary Daylighting Control Name
  ,                                       !- Fraction of Zone Controlled by Primary Daylighting Control
  ,                                       !- Secondary Daylighting Control Name
  ,                                       !- Fraction of Zone Controlled by Secondary Daylighting Control
  ,                                       !- Illuminance Map Name
  ,                                       !- Group Rendering Name
  ,                                       !- Thermostat Name
  No;                                     !- Use Ideal Air Loads

OS:Node,
  {ee259d1c-7ae5-4784-b700-cb344d7ec24d}, !- Handle
  Node 2,                                 !- Name
  {99449de1-7186-4abd-b77e-4ab6e8c9a6a6}, !- Inlet Port
  ;                                       !- Outlet Port

OS:Connection,
  {99449de1-7186-4abd-b77e-4ab6e8c9a6a6}, !- Handle
  {b751cb04-c272-42a0-b80e-7f44632d2081}, !- Name
  {bd1d437f-e6ca-4049-935b-f69ed2807ece}, !- Source Object
  11,                                     !- Outlet Port
  {ee259d1c-7ae5-4784-b700-cb344d7ec24d}, !- Target Object
  2;                                      !- Inlet Port

OS:PortList,
  {84c0967c-c1bf-4d9b-8067-14de2fb2807b}, !- Handle
  {bb955446-b816-4992-bc18-40c9d51713c8}, !- Name
  {bd1d437f-e6ca-4049-935b-f69ed2807ece}; !- HVAC Component

OS:PortList,
  {f5ea0715-aac6-4ee4-919d-5e578faf376e}, !- Handle
  {1ee14c1e-6c08-4a67-874b-c4b1ae8db63e}, !- Name
  {bd1d437f-e6ca-4049-935b-f69ed2807ece}; !- HVAC Component

OS:PortList,
  {2d0b50c4-2d80-4139-9633-4832a516d903}, !- Handle
  {0eba091f-e9c3-40b4-b16e-22bceab9ae94}, !- Name
  {bd1d437f-e6ca-4049-935b-f69ed2807ece}; !- HVAC Component

OS:Sizing:Zone,
  {f422977c-1949-4cac-a1ed-4b9dab2731b6}, !- Handle
  {bd1d437f-e6ca-4049-935b-f69ed2807ece}, !- Zone or ZoneList Name
  SupplyAirTemperature,                   !- Zone Cooling Design Supply Air Temperature Input Method
  14,                                     !- Zone Cooling Design Supply Air Temperature {C}
  11.11,                                  !- Zone Cooling Design Supply Air Temperature Difference {deltaC}
  SupplyAirTemperature,                   !- Zone Heating Design Supply Air Temperature Input Method
  40,                                     !- Zone Heating Design Supply Air Temperature {C}
  11.11,                                  !- Zone Heating Design Supply Air Temperature Difference {deltaC}
  0.0085,                                 !- Zone Cooling Design Supply Air Humidity Ratio {kg-H2O/kg-air}
  0.008,                                  !- Zone Heating Design Supply Air Humidity Ratio {kg-H2O/kg-air}
  ,                                       !- Zone Heating Sizing Factor
  ,                                       !- Zone Cooling Sizing Factor
  DesignDay,                              !- Cooling Design Air Flow Method
  ,                                       !- Cooling Design Air Flow Rate {m3/s}
  ,                                       !- Cooling Minimum Air Flow per Zone Floor Area {m3/s-m2}
  ,                                       !- Cooling Minimum Air Flow {m3/s}
  ,                                       !- Cooling Minimum Air Flow Fraction
  DesignDay,                              !- Heating Design Air Flow Method
  ,                                       !- Heating Design Air Flow Rate {m3/s}
  ,                                       !- Heating Maximum Air Flow per Zone Floor Area {m3/s-m2}
  ,                                       !- Heating Maximum Air Flow {m3/s}
  ,                                       !- Heating Maximum Air Flow Fraction
  ,                                       !- Design Zone Air Distribution Effectiveness in Cooling Mode
  ,                                       !- Design Zone Air Distribution Effectiveness in Heating Mode
  No,                                     !- Account for Dedicated Outdoor Air System
  NeutralSupplyAir,                       !- Dedicated Outdoor Air System Control Strategy
  autosize,                               !- Dedicated Outdoor Air Low Setpoint Temperature for Design {C}
  autosize;                               !- Dedicated Outdoor Air High Setpoint Temperature for Design {C}

OS:ZoneHVAC:EquipmentList,
  {3d1a7fe1-45c1-498c-aca9-0c390ad75e2d}, !- Handle
  Zone HVAC Equipment List 2,             !- Name
  {bd1d437f-e6ca-4049-935b-f69ed2807ece}; !- Thermal Zone

OS:Space,
  {06756647-0292-4180-b13f-b05945de6ccf}, !- Handle
  SUn WarehouseUnCond C end_a - Story Ground, !- Name
  {bc72c6d8-61ec-476e-9600-0ad3e157669b}, !- Space Type Name
  ,                                       !- Default Construction Set Name
  ,                                       !- Default Schedule Set Name
  -0,                                     !- Direction of Relative North {deg}
  -107.762103580804,                      !- X Origin {m}
  103.190103580804,                       !- Y Origin {m}
  0,                                      !- Z Origin {m}
  {b3903f46-06d3-4deb-ad41-66c60e8c0562}, !- Building Story Name
  {aaac7d60-a1d3-4610-9746-8fe1f6cfccb5}; !- Thermal Zone Name

OS:Surface,
  {017c43f1-167d-40ab-ac72-44afc1caf1ba}, !- Handle
  Surface 13,                             !- Name
  Floor,                                  !- Surface Type
  ,                                       !- Construction Name
  {06756647-0292-4180-b13f-b05945de6ccf}, !- Space Name
  Ground,                                 !- Outside Boundary Condition
  ,                                       !- Outside Boundary Condition Object
  NoSun,                                  !- Sun Exposure
  NoWind,                                 !- Wind Exposure
  ,                                       !- View Factor to Ground
  ,                                       !- Number of Vertices
  3.41060513164848e-013, -3.12638803734444e-013, 0, !- X,Y,Z Vertex 1 {m}
  3.41060513164848e-013, 4.57199999999968, 0, !- X,Y,Z Vertex 2 {m}
  4.57200000000033, 4.57199999999968, 0,  !- X,Y,Z Vertex 3 {m}
  4.57200000000033, -3.12638803734444e-013, 0; !- X,Y,Z Vertex 4 {m}

OS:Surface,
  {ec4bc114-e598-419c-ae75-7ede2cf2206c}, !- Handle
  Surface 14,                             !- Name
  Wall,                                   !- Surface Type
  ,                                       !- Construction Name
  {06756647-0292-4180-b13f-b05945de6ccf}, !- Space Name
  Outdoors,                               !- Outside Boundary Condition
  ,                                       !- Outside Boundary Condition Object
  SunExposed,                             !- Sun Exposure
  WindExposed,                            !- Wind Exposure
  ,                                       !- View Factor to Ground
  ,                                       !- Number of Vertices
  3.41060513164848e-013, 4.57199999999968, 14.6304, !- X,Y,Z Vertex 1 {m}
  3.41060513164848e-013, 4.57199999999968, 0, !- X,Y,Z Vertex 2 {m}
  3.41060513164848e-013, -3.12638803734444e-013, 0, !- X,Y,Z Vertex 3 {m}
  3.41060513164848e-013, -3.12638803734444e-013, 14.6304; !- X,Y,Z Vertex 4 {m}

OS:Surface,
  {1b0afdee-817f-4435-a018-5e96a62451d9}, !- Handle
  Surface 15,                             !- Name
  Wall,                                   !- Surface Type
  ,                                       !- Construction Name
  {06756647-0292-4180-b13f-b05945de6ccf}, !- Space Name
  Outdoors,                               !- Outside Boundary Condition
  ,                                       !- Outside Boundary Condition Object
  SunExposed,                             !- Sun Exposure
  WindExposed,                            !- Wind Exposure
  ,                                       !- View Factor to Ground
  ,                                       !- Number of Vertices
  4.57200000000033, 4.57199999999968, 14.6304, !- X,Y,Z Vertex 1 {m}
  4.57200000000033, 4.57199999999968, 0,  !- X,Y,Z Vertex 2 {m}
  3.41060513164848e-013, 4.57199999999968, 0, !- X,Y,Z Vertex 3 {m}
  3.41060513164848e-013, 4.57199999999968, 14.6304; !- X,Y,Z Vertex 4 {m}

OS:Surface,
  {4d7dcc46-8ef3-4608-b4df-60563b94f0bc}, !- Handle
  Surface 16,                             !- Name
  Wall,                                   !- Surface Type
  ,                                       !- Construction Name
  {06756647-0292-4180-b13f-b05945de6ccf}, !- Space Name
  Surface,                                !- Outside Boundary Condition
  {fc66ba4a-f454-464a-b6ec-d60ffd70418d}, !- Outside Boundary Condition Object