
OS:Version,
  {7e1bc7bb-88c5-4343-b880-7bd835e15d52}, !- Handle
  3.3.0;                                  !- Version Identifier

OS:Site,
  {697a62e1-a931-4fa5-be87-378085382fb9}, !- Handle
  Denver Centennial  Golden   Nr,         !- Name
  39.74,                                  !- Latitude {deg}
  -105.18,                                !- Longitude {deg}
  -7,                                     !- Time Zone {hr}
  1829,                                   !- Elevation {m}
  ;                                       !- Terrain

OS:YearDescription,
  {27f5f26d-f0d8-4eb0-80b3-cc87d9f25ca4}, !- Handle
  ,                                       !- Calendar Year
  Sunday;                                 !- Day of Week for Start Day

OS:ClimateZones,
  {6f7c4215-3e29-4851-b2e6-f76fdfd1cf82}, !- Handle
  ASHRAE,                                 !- Climate Zone Institution Name 1
  ANSI/ASHRAE Standard 169,               !- Climate Zone Document Name 1
  2006,                                   !- Climate Zone Document Year 1
  5B,                                     !- Climate Zone Value 1
  CEC,                                    !- Climate Zone Institution Name 2
  California Climate Zone Descriptions,   !- Climate Zone Document Name 2
  1995,                                   !- Climate Zone Document Year 2
  ;                                       !- Climate Zone Value 2

OS:Building,
  {747e7bd5-9e0a-40bc-b2cf-fa629ec41f48}, !- Handle
  Building 1,                             !- Name
  ,                                       !- Building Sector Type
  ,                                       !- North Axis {deg}
  ,                                       !- Nominal Floor to Floor Height {m}
  ,                                       !- Space Type Name
  ,                                       !- Default Construction Set Name
  ;                                       !- Default Schedule Set Name

OS:Facility,
  {e9d73bbd-5a05-47a9-a0ec-c21c4e870582}; !- Handle

OS:SimulationControl,
  {6bc41c56-b6d5-47ba-ace8-5bebd9fc53b0}; !- Handle

OS:Sizing:Parameters,
  {873f3fc0-3c6f-42ad-9d04-7a1110b97ab0}, !- Handle
  1.25,                                   !- Heating Sizing Factor
  1.15;                                   !- Cooling Sizing Factor

OS:Timestep,
  {cdaa0a39-f7b7-4053-89bd-9ae07c3eb24a}, !- Handle
  6;                                      !- Number of Timesteps per Hour

OS:ShadowCalculation,
  {e843faae-1349-43a8-90fb-8b70a955a60b}, !- Handle
  PolygonClipping,                        !- Shading Calculation Method
  ,                                       !- Shading Calculation Update Frequency Method
  20,                                     !- Shading Calculation Update Frequency
  15000,                                  !- Maximum Figures in Shadow Overlap Calculations
  ,                                       !- Polygon Clipping Algorithm
  512,                                    !- Pixel Counting Resolution
  ,                                       !- Sky Diffuse Modeling Algorithm
  No,                                     !- Output External Shading Calculation Results
  No,                                     !- Disable Self-Shading Within Shading Zone Groups
  No;                                     !- Disable Self-Shading From Shading Zone Groups to Other Zones

OS:HeatBalanceAlgorithm,
  {d7da5c73-d6c0-4cc4-84e1-e6c88ee2b39e}, !- Handle
  ConductionTransferFunction,             !- Algorithm
  200;                                    !- Surface Temperature Upper Limit {C}

OS:RunPeriod,
  {a15bce9f-8e01-47f2-b8ce-112c944a28b0}, !- Handle
  Run Period 1,                           !- Name
  1,                                      !- Begin Month
  1,                                      !- Begin Day of Month
  12,                                     !- End Month
  31,                                     !- End Day of Month
  ,                                       !- Use Weather File Holidays and Special Days
  ,                                       !- Use Weather File Daylight Saving Period
  ,                                       !- Apply Weekend Holiday Rule
  ,                                       !- Use Weather File Rain Indicators
  ,                                       !- Use Weather File Snow Indicators
  ;                                       !- Number of Times Runperiod to be Repeated

OS:LifeCycleCost:Parameters,
  {8399b18f-bd2f-4a52-b0f6-d38070471397}, !- Handle
  ,                                       !- Analysis Type
  ,                                       !- Discounting Convention
  ,                                       !- Inflation Approach
  ,                                       !- Real Discount Rate
  ,                                       !- Nominal Discount Rate
  ,                                       !- Inflation
  ,                                       !- Base Date Month
  ,                                       !- Base Date Year
  ,                                       !- Service Date Month
  ,                                       !- Service Date Year
  ;                                       !- Length of Study Period in Years

OS:WeatherFile,
  {ddebced7-6f82-4514-a2ce-12aca10d5489}, !- Handle
  Denver Centennial  Golden   Nr,         !- City
  CO,                                     !- State Province Region
  USA,                                    !- Country
  TMY3,                                   !- Data Source
  724666,                                 !- WMO Number
  39.74,                                  !- Latitude {deg}
  -105.18,                                !- Longitude {deg}
  -7,                                     !- Time Zone {hr}
  1829,                                   !- Elevation {m}
  USA_CO_Golden-NREL.724666_TMY3.epw,     !- Url
  BDF687C1,                               !- Checksum
  ,                                       !- Start Date Actual Year
  Sunday;                                 !- Start Day of Week

OS:SizingPeriod:DesignDay,
  {44d4b175-6a02-41eb-95f3-1163a0223f4b}, !- Handle
  Denver Centennial  Golden   N Ann Htg 99.6% Condns DB, !- Name
  -18.8,                                  !- Maximum Dry-Bulb Temperature {C}
  0,                                      !- Daily Dry-Bulb Temperature Range {deltaC}
  81198,                                  !- Barometric Pressure {Pa}
  3,                                      !- Wind Speed {m/s}
  340,                                    !- Wind Direction {deg}
  0,                                      !- Sky Clearness
  No,                                     !- Rain Indicator
  No,                                     !- Snow Indicator
  21,                                     !- Day of Month
  12,                                     !- Month
  WinterDesignDay,                        !- Day Type
  No,                                     !- Daylight Saving Time Indicator
  Wetbulb,                                !- Humidity Condition Type
  ,                                       !- Humidity Condition Day Schedule Name
  -18.8,                                  !- Wetbulb or DewPoint at Maximum Dry-Bulb {C}
  ,                                       !- Humidity Ratio at Maximum Dry-Bulb {kgWater/kgDryAir}
  ,                                       !- Enthalpy at Maximum Dry-Bulb {J/kg}
  DefaultMultipliers,                     !- Dry-Bulb Temperature Range Modifier Type
  ,                                       !- Dry-Bulb Temperature Range Modifier Day Schedule Name
  ASHRAEClearSky;                         !- Solar Model Indicator

OS:SizingPeriod:DesignDay,
  {dbee09aa-8e38-48cf-9694-2350ce3573ac}, !- Handle
  Denver Centennial  Golden   N Ann Hum_n 99.6% Condns DP=>MCDB, !- Name
  -10.9,                                  !- Maximum Dry-Bulb Temperature {C}
  0,                                      !- Daily Dry-Bulb Temperature Range {deltaC}
  81198,                                  !- Barometric Pressure {Pa}
  3,                                      !- Wind Speed {m/s}
  340,                                    !- Wind Direction {deg}
  0,                                      !- Sky Clearness
  No,                                     !- Rain Indicator
  No,                                     !- Snow Indicator
  21,                                     !- Day of Month
  12,                                     !- Month
  WinterDesignDay,                        !- Day Type
  No,                                     !- Daylight Saving Time Indicator
  Dewpoint,                               !- Humidity Condition Type
  ,                                       !- Humidity Condition Day Schedule Name
  -21.6,                                  !- Wetbulb or DewPoint at Maximum Dry-Bulb {C}
  ,                                       !- Humidity Ratio at Maximum Dry-Bulb {kgWater/kgDryAir}
  ,                                       !- Enthalpy at Maximum Dry-Bulb {J/kg}
  DefaultMultipliers,                     !- Dry-Bulb Temperature Range Modifier Type
  ,                                       !- Dry-Bulb Temperature Range Modifier Day Schedule Name
  ASHRAEClearSky;                         !- Solar Model Indicator

OS:SizingPeriod:DesignDay,
  {36494ec2-06d0-4df9-bb1a-7671e9ac8e73}, !- Handle
  Denver Centennial  Golden   N Ann Htg Wind 99.6% Condns WS=>MCDB, !- Name
  3.9,                                    !- Maximum Dry-Bulb Temperature {C}
  0,                                      !- Daily Dry-Bulb Temperature Range {deltaC}
  81198,                                  !- Barometric Pressure {Pa}
  12.2,                                   !- Wind Speed {m/s}
  340,                                    !- Wind Direction {deg}
  0,                                      !- Sky Clearness
  No,                                     !- Rain Indicator
  No,                                     !- Snow Indicator
  21,                                     !- Day of Month
  12,                                     !- Month
  WinterDesignDay,                        !- Day Type
  No,                                     !- Daylight Saving Time Indicator
  Wetbulb,                                !- Humidity Condition Type
  ,                                       !- Humidity Condition Day Schedule Name
  3.9,                                    !- Wetbulb or DewPoint at Maximum Dry-Bulb {C}
  ,                                       !- Humidity Ratio at Maximum Dry-Bulb {kgWater/kgDryAir}
  ,                                       !- Enthalpy at Maximum Dry-Bulb {J/kg}
  DefaultMultipliers,                     !- Dry-Bulb Temperature Range Modifier Type
  ,                                       !- Dry-Bulb Temperature Range Modifier Day Schedule Name
  ASHRAEClearSky;                         !- Solar Model Indicator

OS:SizingPeriod:DesignDay,
  {050bd162-4602-42c9-904c-7987b8f949ff}, !- Handle
  Denver Centennial  Golden   N Ann Clg .4% Condns DB=>MWB, !- Name
  33,                                     !- Maximum Dry-Bulb Temperature {C}
  15.2,                                   !- Daily Dry-Bulb Temperature Range {deltaC}
  81198,                                  !- Barometric Pressure {Pa}
  4.9,                                    !- Wind Speed {m/s}
  0,                                      !- Wind Direction {deg}
  ,                                       !- Sky Clearness
  No,                                     !- Rain Indicator
  No,                                     !- Snow Indicator
  21,                                     !- Day of Month
  7,                                      !- Month
  SummerDesignDay,                        !- Day Type
  No,                                     !- Daylight Saving Time Indicator
  Wetbulb,                                !- Humidity Condition Type
  ,                                       !- Humidity Condition Day Schedule Name
  15.7,                                   !- Wetbulb or DewPoint at Maximum Dry-Bulb {C}
  ,                                       !- Humidity Ratio at Maximum Dry-Bulb {kgWater/kgDryAir}
  ,                                       !- Enthalpy at Maximum Dry-Bulb {J/kg}
  DefaultMultipliers,                     !- Dry-Bulb Temperature Range Modifier Type
  ,                                       !- Dry-Bulb Temperature Range Modifier Day Schedule Name
  ASHRAETau,                              !- Solar Model Indicator
  ,                                       !- Beam Solar Day Schedule Name
  ,                                       !- Diffuse Solar Day Schedule Name
  0.424,                                  !- ASHRAE Clear Sky Optical Depth for Beam Irradiance {dimensionless}
  2.025;                                  !- ASHRAE Clear Sky Optical Depth for Diffuse Irradiance {dimensionless}

OS:SizingPeriod:DesignDay,
  {61beffe5-70d9-4733-a004-8c6a872ac76b}, !- Handle
  Denver Centennial  Golden   N Ann Clg .4% Condns WB=>MDB, !- Name
  27.3,                                   !- Maximum Dry-Bulb Temperature {C}
  15.2,                                   !- Daily Dry-Bulb Temperature Range {deltaC}
  81198,                                  !- Barometric Pressure {Pa}
  4.9,                                    !- Wind Speed {m/s}
  0,                                      !- Wind Direction {deg}
  ,                                       !- Sky Clearness
  No,                                     !- Rain Indicator
  No,                                     !- Snow Indicator
  21,                                     !- Day of Month
  7,                                      !- Month
  SummerDesignDay,                        !- Day Type
  No,                                     !- Daylight Saving Time Indicator
  Wetbulb,                                !- Humidity Condition Type
  ,                                       !- Humidity Condition Day Schedule Name
  18.4,                                   !- Wetbulb or DewPoint at Maximum Dry-Bulb {C}
  ,                                       !- Humidity Ratio at Maximum Dry-Bulb {kgWater/kgDryAir}
  ,                                       !- Enthalpy at Maximum Dry-Bulb {J/kg}
  DefaultMultipliers,                     !- Dry-Bulb Temperature Range Modifier Type
  ,                                       !- Dry-Bulb Temperature Range Modifier Day Schedule Name
  ASHRAETau,                              !- Solar Model Indicator
  ,                                       !- Beam Solar Day Schedule Name
  ,                                       !- Diffuse Solar Day Schedule Name
  0.424,                                  !- ASHRAE Clear Sky Optical Depth for Beam Irradiance {dimensionless}
  2.025;                                  !- ASHRAE Clear Sky Optical Depth for Diffuse Irradiance {dimensionless}

OS:SizingPeriod:DesignDay,
  {e64a4b51-93e7-48c1-b643-b0b426459498}, !- Handle
  Denver Centennial  Golden   N Ann Clg .4% Condns DP=>MDB, !- Name
  20.2,                                   !- Maximum Dry-Bulb Temperature {C}
  15.2,                                   !- Daily Dry-Bulb Temperature Range {deltaC}
  81198,                                  !- Barometric Pressure {Pa}
  4.9,                                    !- Wind Speed {m/s}
  0,                                      !- Wind Direction {deg}
  ,                                       !- Sky Clearness
  No,                                     !- Rain Indicator
  No,                                     !- Snow Indicator
  21,                                     !- Day of Month
  7,                                      !- Month
  SummerDesignDay,                        !- Day Type
  No,                                     !- Daylight Saving Time Indicator
  Dewpoint,                               !- Humidity Condition Type
  ,                                       !- Humidity Condition Day Schedule Name
  16.1,                                   !- Wetbulb or DewPoint at Maximum Dry-Bulb {C}
  ,                                       !- Humidity Ratio at Maximum Dry-Bulb {kgWater/kgDryAir}
  ,                                       !- Enthalpy at Maximum Dry-Bulb {J/kg}
  DefaultMultipliers,                     !- Dry-Bulb Temperature Range Modifier Type
  ,                                       !- Dry-Bulb Temperature Range Modifier Day Schedule Name
  ASHRAETau,                              !- Solar Model Indicator
  ,                                       !- Beam Solar Day Schedule Name
  ,                                       !- Diffuse Solar Day Schedule Name
  0.424,                                  !- ASHRAE Clear Sky Optical Depth for Beam Irradiance {dimensionless}
  2.025;                                  !- ASHRAE Clear Sky Optical Depth for Diffuse Irradiance {dimensionless}

OS:SizingPeriod:DesignDay,
  {c3f85291-907b-4491-a332-a852ba30bbfa}, !- Handle
  Denver Centennial  Golden   N Ann Clg .4% Condns Enth=>MDB, !- Name
  27.3,                                   !- Maximum Dry-Bulb Temperature {C}
  15.2,                                   !- Daily Dry-Bulb Temperature Range {deltaC}
  81198,                                  !- Barometric Pressure {Pa}
  4.9,                                    !- Wind Speed {m/s}
  0,                                      !- Wind Direction {deg}
  ,                                       !- Sky Clearness
  No,                                     !- Rain Indicator
  No,                                     !- Snow Indicator
  21,                                     !- Day of Month
  7,                                      !- Month
  SummerDesignDay,                        !- Day Type
  No,                                     !- Daylight Saving Time Indicator
  Enthalpy,                               !- Humidity Condition Type
  ,                                       !- Humidity Condition Day Schedule Name
  23,                                     !- Wetbulb or DewPoint at Maximum Dry-Bulb {C}
  ,                                       !- Humidity Ratio at Maximum Dry-Bulb {kgWater/kgDryAir}
  59700,                                  !- Enthalpy at Maximum Dry-Bulb {J/kg}
  DefaultMultipliers,                     !- Dry-Bulb Temperature Range Modifier Type
  ,                                       !- Dry-Bulb Temperature Range Modifier Day Schedule Name
  ASHRAETau,                              !- Solar Model Indicator
  ,                                       !- Beam Solar Day Schedule Name
  ,                                       !- Diffuse Solar Day Schedule Name
  0.424,                                  !- ASHRAE Clear Sky Optical Depth for Beam Irradiance {dimensionless}
  2.025;                                  !- ASHRAE Clear Sky Optical Depth for Diffuse Irradiance {dimensionless}

